/*---------------------------------------------------------------------------*\
| =========                 |                                                 |
| \\      /  F ield         | OpenFOAM: The Open Source CFD Toolbox           |
|  \\    /   O peration     | Version:  2506                                  |
|   \\  /    A nd           | Website:  www.openfoam.com                      |
|    \\/     M anipulation  |                                                 |
\*---------------------------------------------------------------------------*/
Build  : _615aae61-20250627 OPENFOAM=2506 version=v2506
Arch   : "LSB;label=32;scalar=64"
Exec   : simpleFoam
Date   : Oct 24 2025
Time   : 09:35:36
Host   : DESKTOP-S27TKU1
PID    : 96852
I/O    : uncollated
Case   : /home/durai/OpenFOAM/durai-v2506/run/dev-space/backwardFacingStep2D
nProcs : 1
trapFpe: Floating point exception trapping enabled (FOAM_SIGFPE).
fileModificationChecking : Monitoring run-time modified files using timeStampMaster (fileModificationSkew 5, maxFileModificationPolls 20)
allowSystemOperations : Allowing user-supplied system call operations

// * * * * * * * * * * * * * * * * * * * * * * * * * * * * * * * * * * * * * //
Create time

Create mesh for time = 0


SIMPLE: convergence criteria
    field p	 tolerance 0.0001
    field U	 tolerance 1e-06
    field "(k|epsilon|omega|f|v2)"	 tolerance 1e-05

Reading field p

Reading field U

Reading/calculating face flux field phi

Selecting incompressible transport model Newtonian
Selecting turbulence model type RAS
Selecting RAS turbulence model kOmegaSST
Selecting patchDistMethod meshWave
RAS
{
    RASModel        kOmegaSST;
    turbulence      on;
    printCoeffs     on;
    alphaK1         0.85;
    alphaK2         1;
    alphaOmega1     0.5;
    alphaOmega2     0.856;
    gamma1          0.555556;
    gamma2          0.44;
    beta1           0.075;
    beta2           0.0828;
    betaStar        0.09;
    a1              0.31;
    b1              1;
    c1              10;
    F3              false;
    decayControl    false;
    kInf            0;
    omegaInf        0;
}

No MRF models present

No finite volume options present

Starting time loop

turbulenceFields stressComponents: storing fields:
    turbulenceProperties:devReff

pressure pressureCoefficient:
    Operating mode: staticCoeff
    Not including hydrostatic effects

Sampled set:
    Uref -> csv
    x_by_h_01 -> csv
    x_by_h_04 -> csv
    x_by_h_06 -> csv
    x_by_h_10 -> csv

wallShearStress wallShearStress:
    processing all (2) wall patches

Time = 1

smoothSolver:  Solving for Ux, Initial residual = 1, Final residual = 0.00114899, No Iterations 1
smoothSolver:  Solving for Uy, Initial residual = 1, Final residual = 0.0376223, No Iterations 2
GAMG:  Solving for p, Initial residual = 1, Final residual = 0.0992651, No Iterations 22
time step continuity errors : sum local = 0.0235571, global = -0.0031948, cumulative = -0.0031948
smoothSolver:  Solving for omega, Initial residual = 0.999966, Final residual = 3.13587e-05, No Iterations 1
smoothSolver:  Solving for k, Initial residual = 1, Final residual = 0.000554867, No Iterations 1
bounding k, min: -9.46469e-05 max: 0.00772286 average: 0.000224163
ExecutionTime = 0.87 s  ClockTime = 1 s

Time = 2

smoothSolver:  Solving for Ux, Initial residual = 0.00403891, Final residual = 0.000192193, No Iterations 2
smoothSolver:  Solving for Uy, Initial residual = 0.0220019, Final residual = 0.00119667, No Iterations 2
GAMG:  Solving for p, Initial residual = 0.984959, Final residual = 0.0912105, No Iterations 23
time step continuity errors : sum local = 0.0650838, global = -0.000261597, cumulative = -0.0034564
smoothSolver:  Solving for omega, Initial residual = 0.978935, Final residual = 0.000616039, No Iterations 1
smoothSolver:  Solving for k, Initial residual = 0.932323, Final residual = 0.00654925, No Iterations 1
ExecutionTime = 1.05 s  ClockTime = 1 s

Time = 3

smoothSolver:  Solving for Ux, Initial residual = 0.0151373, Final residual = 0.000954928, No Iterations 2
smoothSolver:  Solving for Uy, Initial residual = 0.274025, Final residual = 0.0141955, No Iterations 2
GAMG:  Solving for p, Initial residual = 0.639005, Final residual = 0.0527327, No Iterations 2
time step continuity errors : sum local = 0.0706424, global = -0.00901806, cumulative = -0.0124745
smoothSolver:  Solving for omega, Initial residual = 0.283202, Final residual = 0.00218458, No Iterations 1
smoothSolver:  Solving for k, Initial residual = 0.230394, Final residual = 0.00738297, No Iterations 1
ExecutionTime = 1.11 s  ClockTime = 1 s

Time = 4

smoothSolver:  Solving for Ux, Initial residual = 0.0113266, Final residual = 0.00077971, No Iterations 2
smoothSolver:  Solving for Uy, Initial residual = 0.125352, Final residual = 0.0073547, No Iterations 2
GAMG:  Solving for p, Initial residual = 0.507334, Final residual = 0.0411022, No Iterations 3
time step continuity errors : sum local = 0.0408457, global = 0.000428174, cumulative = -0.0120463
smoothSolver:  Solving for omega, Initial residual = 0.0924147, Final residual = 0.00340836, No Iterations 1
smoothSolver:  Solving for k, Initial residual = 0.114838, Final residual = 0.00260008, No Iterations 1
ExecutionTime = 1.19 s  ClockTime = 2 s

Time = 5

smoothSolver:  Solving for Ux, Initial residual = 0.0107337, Final residual = 0.000720312, No Iterations 2
smoothSolver:  Solving for Uy, Initial residual = 0.066432, Final residual = 0.00337729, No Iterations 2
GAMG:  Solving for p, Initial residual = 0.197228, Final residual = 0.0120892, No Iterations 3
time step continuity errors : sum local = 0.0231101, global = -0.0023438, cumulative = -0.0143901
smoothSolver:  Solving for omega, Initial residual = 0.0397428, Final residual = 0.00193504, No Iterations 1
smoothSolver:  Solving for k, Initial residual = 0.0726639, Final residual = 0.00103799, No Iterations 1
bounding k, min: -3.68635e-05 max: 0.890214 average: 0.00186141
ExecutionTime = 1.27 s  ClockTime = 2 s

Time = 6

smoothSolver:  Solving for Ux, Initial residual = 0.0116766, Final residual = 0.000759692, No Iterations 2
smoothSolver:  Solving for Uy, Initial residual = 0.0699287, Final residual = 0.0039246, No Iterations 2
GAMG:  Solving for p, Initial residual = 0.122222, Final residual = 0.00904527, No Iterations 1
time step continuity errors : sum local = 0.0307884, global = -0.00126285, cumulative = -0.0156529
smoothSolver:  Solving for omega, Initial residual = 0.0251205, Final residual = 0.00142695, No Iterations 1
bounding omega, min: -151.598 max: 583599 average: 7435.21
smoothSolver:  Solving for k, Initial residual = 0.0527883, Final residual = 0.000579085, No Iterations 1
bounding k, min: -0.000115692 max: 6.3132 average: 0.00369221
ExecutionTime = 1.33 s  ClockTime = 2 s

Time = 7

smoothSolver:  Solving for Ux, Initial residual = 0.0126777, Final residual = 0.000789059, No Iterations 2
smoothSolver:  Solving for Uy, Initial residual = 0.0660027, Final residual = 0.00366042, No Iterations 2
GAMG:  Solving for p, Initial residual = 0.0991979, Final residual = 0.00558662, No Iterations 3
time step continuity errors : sum local = 0.0166779, global = -0.000819461, cumulative = -0.0164724
smoothSolver:  Solving for omega, Initial residual = 0.020495, Final residual = 0.000920644, No Iterations 1
smoothSolver:  Solving for k, Initial residual = 0.0518412, Final residual = 0.000505093, No Iterations 1
bounding k, min: -4.86455e-05 max: 18.0031 average: 0.00658181
ExecutionTime = 1.4 s  ClockTime = 2 s

Time = 8

smoothSolver:  Solving for Ux, Initial residual = 0.0134451, Final residual = 0.000797019, No Iterations 2
smoothSolver:  Solving for Uy, Initial residual = 0.0419665, Final residual = 0.00191003, No Iterations 2
GAMG:  Solving for p, Initial residual = 0.100091, Final residual = 0.00736839, No Iterations 1
time step continuity errors : sum local = 0.0276086, global = 0.00212914, cumulative = -0.0143433
smoothSolver:  Solving for omega, Initial residual = 0.0184951, Final residual = 0.000842705, No Iterations 1
smoothSolver:  Solving for k, Initial residual = 0.0452116, Final residual = 0.000477522, No Iterations 1
bounding k, min: -0.000114941 max: 29.8963 average: 0.0099687
ExecutionTime = 1.47 s  ClockTime = 2 s

Time = 9

smoothSolver:  Solving for Ux, Initial residual = 0.0139492, Final residual = 0.000807326, No Iterations 2
smoothSolver:  Solving for Uy, Initial residual = 0.0464717, Final residual = 0.00194165, No Iterations 2
GAMG:  Solving for p, Initial residual = 0.116472, Final residual = 0.0085297, No Iterations 1
time step continuity errors : sum local = 0.041012, global = 0.00665284, cumulative = -0.00769041
smoothSolver:  Solving for omega, Initial residual = 0.0168256, Final residual = 0.000587508, No Iterations 1
bounding omega, min: -187.179 max: 438955 average: 7312.59
smoothSolver:  Solving for k, Initial residual = 0.046269, Final residual = 0.00055037, No Iterations 1
bounding k, min: -0.000300427 max: 35.1184 average: 0.0135297
ExecutionTime = 1.53 s  ClockTime = 2 s

Time = 10

smoothSolver:  Solving for Ux, Initial residual = 0.0148122, Final residual = 0.000824904, No Iterations 2
smoothSolver:  Solving for Uy, Initial residual = 0.0534288, Final residual = 0.0018829, No Iterations 2
GAMG:  Solving for p, Initial residual = 0.137999, Final residual = 0.00715114, No Iterations 1
time step continuity errors : sum local = 0.047311, global = 0.0106538, cumulative = 0.00296338
smoothSolver:  Solving for omega, Initial residual = 0.0209537, Final residual = 0.000602876, No Iterations 1
bounding omega, min: -43.0408 max: 410077 average: 7350.72
smoothSolver:  Solving for k, Initial residual = 0.0547425, Final residual = 0.000700399, No Iterations 1
bounding k, min: -0.000216516 max: 34.5835 average: 0.0184128
ExecutionTime = 1.6 s  ClockTime = 2 s

Time = 11

smoothSolver:  Solving for Ux, Initial residual = 0.0157348, Final residual = 0.000838626, No Iterations 2
smoothSolver:  Solving for Uy, Initial residual = 0.0619803, Final residual = 0.00195222, No Iterations 2
GAMG:  Solving for p, Initial residual = 0.0942408, Final residual = 0.00874998, No Iterations 1
time step continuity errors : sum local = 0.0584867, global = 0.0214639, cumulative = 0.0244273
smoothSolver:  Solving for omega, Initial residual = 0.0221518, Final residual = 0.000480358, No Iterations 1
smoothSolver:  Solving for k, Initial residual = 0.0731081, Final residual = 0.000896212, No Iterations 1
bounding k, min: -0.00243077 max: 28.3223 average: 0.026231
ExecutionTime = 1.66 s  ClockTime = 2 s

Time = 12

smoothSolver:  Solving for Ux, Initial residual = 0.0161305, Final residual = 0.000858017, No Iterations 2
smoothSolver:  Solving for Uy, Initial residual = 0.0667479, Final residual = 0.00219902, No Iterations 2
GAMG:  Solving for p, Initial residual = 0.0920022, Final residual = 0.00826615, No Iterations 2
time step continuity errors : sum local = 0.0520124, global = -0.0058806, cumulative = 0.0185467
smoothSolver:  Solving for omega, Initial residual = 0.0241885, Final residual = 0.000483291, No Iterations 1
smoothSolver:  Solving for k, Initial residual = 0.0728374, Final residual = 0.00109813, No Iterations 1
bounding k, min: -0.0162872 max: 30.0372 average: 0.0399793
ExecutionTime = 1.73 s  ClockTime = 2 s

Time = 13

smoothSolver:  Solving for Ux, Initial residual = 0.0166907, Final residual = 0.00086671, No Iterations 2
smoothSolver:  Solving for Uy, Initial residual = 0.0766047, Final residual = 0.00249223, No Iterations 2
GAMG:  Solving for p, Initial residual = 0.159189, Final residual = 0.0079238, No Iterations 1
time step continuity errors : sum local = 0.050676, global = 0.00377857, cumulative = 0.0223252
smoothSolver:  Solving for omega, Initial residual = 0.0216498, Final residual = 0.000433503, No Iterations 1
bounding omega, min: -58.8489 max: 366123 average: 7353.69
smoothSolver:  Solving for k, Initial residual = 0.0825469, Final residual = 0.00124771, No Iterations 1
bounding k, min: -0.0293116 max: 37.1468 average: 0.0645482
ExecutionTime = 1.8 s  ClockTime = 2 s

Time = 14

smoothSolver:  Solving for Ux, Initial residual = 0.0170272, Final residual = 0.000885975, No Iterations 2
smoothSolver:  Solving for Uy, Initial residual = 0.0736114, Final residual = 0.00249728, No Iterations 2
GAMG:  Solving for p, Initial residual = 0.134164, Final residual = 0.0100327, No Iterations 1
time step continuity errors : sum local = 0.050694, global = 0.00875055, cumulative = 0.0310758
smoothSolver:  Solving for omega, Initial residual = 0.0216332, Final residual = 0.00041469, No Iterations 1
smoothSolver:  Solving for k, Initial residual = 0.085574, Final residual = 0.00133647, No Iterations 1
bounding k, min: -0.0232347 max: 45.2804 average: 0.107841
ExecutionTime = 1.86 s  ClockTime = 2 s

Time = 15

smoothSolver:  Solving for Ux, Initial residual = 0.0172271, Final residual = 0.000899479, No Iterations 2
smoothSolver:  Solving for Uy, Initial residual = 0.0696384, Final residual = 0.00248175, No Iterations 2
GAMG:  Solving for p, Initial residual = 0.0915637, Final residual = 0.00878046, No Iterations 1
time step continuity errors : sum local = 0.0548703, global = 0.0152253, cumulative = 0.0463011
smoothSolver:  Solving for omega, Initial residual = 0.0294766, Final residual = 0.00040597, No Iterations 1
bounding omega, min: -45.0154 max: 283418 average: 7335.58
smoothSolver:  Solving for k, Initial residual = 0.0873753, Final residual = 0.0014566, No Iterations 1
bounding k, min: -0.0896828 max: 57.7854 average: 0.180656
ExecutionTime = 1.92 s  ClockTime = 2 s

Time = 16

smoothSolver:  Solving for Ux, Initial residual = 0.017425, Final residual = 0.000907962, No Iterations 2
smoothSolver:  Solving for Uy, Initial residual = 0.0666231, Final residual = 0.0024742, No Iterations 2
GAMG:  Solving for p, Initial residual = 0.113479, Final residual = 0.00810885, No Iterations 2
time step continuity errors : sum local = 0.0398173, global = 0.000288356, cumulative = 0.0465894
smoothSolver:  Solving for omega, Initial residual = 0.0318872, Final residual = 0.00039277, No Iterations 1
bounding omega, min: -160.885 max: 242518 average: 7320.13
smoothSolver:  Solving for k, Initial residual = 0.0909925, Final residual = 0.00152041, No Iterations 1
bounding k, min: -0.0630242 max: 61.976 average: 0.30199
ExecutionTime = 1.99 s  ClockTime = 2 s

Time = 17

smoothSolver:  Solving for Ux, Initial residual = 0.0176828, Final residual = 0.000929657, No Iterations 2
smoothSolver:  Solving for Uy, Initial residual = 0.0671017, Final residual = 0.00242202, No Iterations 2
GAMG:  Solving for p, Initial residual = 0.135606, Final residual = 0.0108694, No Iterations 1
time step continuity errors : sum local = 0.0487588, global = -0.00404289, cumulative = 0.0425466
smoothSolver:  Solving for omega, Initial residual = 0.0329745, Final residual = 0.000381217, No Iterations 1
bounding omega, min: -22.3149 max: 231808 average: 7292.37
smoothSolver:  Solving for k, Initial residual = 0.0855798, Final residual = 0.0016071, No Iterations 1
bounding k, min: -0.430882 max: 69.4903 average: 0.507366
ExecutionTime = 2.05 s  ClockTime = 2 s

Time = 18

smoothSolver:  Solving for Ux, Initial residual = 0.01764, Final residual = 0.000945517, No Iterations 2
smoothSolver:  Solving for Uy, Initial residual = 0.0595513, Final residual = 0.002301, No Iterations 2
GAMG:  Solving for p, Initial residual = 0.150406, Final residual = 0.0128872, No Iterations 1
time step continuity errors : sum local = 0.063028, global = -0.00298671, cumulative = 0.0395598
smoothSolver:  Solving for omega, Initial residual = 0.0257639, Final residual = 0.000379655, No Iterations 1
bounding omega, min: -116.757 max: 244794 average: 7276.49
smoothSolver:  Solving for k, Initial residual = 0.089973, Final residual = 0.00165306, No Iterations 1
bounding k, min: -0.692394 max: 75.7625 average: 0.858377
ExecutionTime = 2.11 s  ClockTime = 2 s

Time = 19

smoothSolver:  Solving for Ux, Initial residual = 0.0174554, Final residual = 0.000935494, No Iterations 2
smoothSolver:  Solving for Uy, Initial residual = 0.0538176, Final residual = 0.00214631, No Iterations 2
GAMG:  Solving for p, Initial residual = 0.104011, Final residual = 0.0067281, No Iterations 2
time step continuity errors : sum local = 0.0305141, global = 0.00877857, cumulative = 0.0483384
smoothSolver:  Solving for omega, Initial residual = 0.0270236, Final residual = 0.000378266, No Iterations 1
bounding omega, min: -172.161 max: 255128 average: 7258.35
smoothSolver:  Solving for k, Initial residual = 0.0902629, Final residual = 0.00173388, No Iterations 1
bounding k, min: -0.528134 max: 92.8842 average: 1.44996
ExecutionTime = 2.18 s  ClockTime = 3 s

Time = 20

smoothSolver:  Solving for Ux, Initial residual = 0.0178055, Final residual = 0.000948006, No Iterations 2
smoothSolver:  Solving for Uy, Initial residual = 0.0592139, Final residual = 0.00246392, No Iterations 2
GAMG:  Solving for p, Initial residual = 0.101409, Final residual = 0.00446211, No Iterations 2
time step continuity errors : sum local = 0.0188823, global = 0.00121569, cumulative = 0.0495541
smoothSolver:  Solving for omega, Initial residual = 0.0266707, Final residual = 0.000384184, No Iterations 1
smoothSolver:  Solving for k, Initial residual = 0.0903296, Final residual = 0.00183491, No Iterations 1
bounding k, min: -0.732759 max: 151.894 average: 2.42737
ExecutionTime = 2.25 s  ClockTime = 3 s

Time = 21

smoothSolver:  Solving for Ux, Initial residual = 0.0180727, Final residual = 0.000954002, No Iterations 2
smoothSolver:  Solving for Uy, Initial residual = 0.0585161, Final residual = 0.00248514, No Iterations 2
GAMG:  Solving for p, Initial residual = 0.0655243, Final residual = 0.00316784, No Iterations 2
time step continuity errors : sum local = 0.0181085, global = 0.00185405, cumulative = 0.0514082
smoothSolver:  Solving for omega, Initial residual = 0.0302484, Final residual = 0.000395512, No Iterations 1
bounding omega, min: -114.207 max: 267359 average: 7251.21
smoothSolver:  Solving for k, Initial residual = 0.0908003, Final residual = 0.00206025, No Iterations 1
bounding k, min: -2.46352 max: 233.757 average: 4.00175
ExecutionTime = 2.32 s  ClockTime = 3 s

Time = 22

smoothSolver:  Solving for Ux, Initial residual = 0.0181024, Final residual = 0.000964909, No Iterations 2
smoothSolver:  Solving for Uy, Initial residual = 0.0549791, Final residual = 0.00233114, No Iterations 2
GAMG:  Solving for p, Initial residual = 0.0592038, Final residual = 0.00365807, No Iterations 2
time step continuity errors : sum local = 0.0231447, global = 0.000237685, cumulative = 0.0516458
smoothSolver:  Solving for omega, Initial residual = 0.0267036, Final residual = 0.000419155, No Iterations 1
bounding omega, min: -94.2138 max: 270592 average: 7270.79
smoothSolver:  Solving for k, Initial residual = 0.0926866, Final residual = 0.00247072, No Iterations 1
bounding k, min: -2.04875 max: 392.348 average: 6.40246
ExecutionTime = 2.39 s  ClockTime = 3 s

Time = 23

smoothSolver:  Solving for Ux, Initial residual = 0.0181977, Final residual = 0.000977846, No Iterations 2
smoothSolver:  Solving for Uy, Initial residual = 0.0550161, Final residual = 0.00229557, No Iterations 2
GAMG:  Solving for p, Initial residual = 0.0458502, Final residual = 0.00421289, No Iterations 1
time step continuity errors : sum local = 0.0436746, global = -0.000641223, cumulative = 0.0510046
smoothSolver:  Solving for omega, Initial residual = 0.0248181, Final residual = 0.00047136, No Iterations 1
bounding omega, min: -258.525 max: 280435 average: 7300.01
smoothSolver:  Solving for k, Initial residual = 0.0860937, Final residual = 0.0029943, No Iterations 1
bounding k, min: -2.56065 max: 613.813 average: 9.79249
ExecutionTime = 2.45 s  ClockTime = 3 s

Time = 24

smoothSolver:  Solving for Ux, Initial residual = 0.018325, Final residual = 0.000991687, No Iterations 2
smoothSolver:  Solving for Uy, Initial residual = 0.0506845, Final residual = 0.00213312, No Iterations 2
GAMG:  Solving for p, Initial residual = 0.03919, Final residual = 0.00281833, No Iterations 2
time step continuity errors : sum local = 0.0273786, global = 0.00322465, cumulative = 0.0542293
smoothSolver:  Solving for omega, Initial residual = 0.0278065, Final residual = 0.000537936, No Iterations 1
bounding omega, min: -121.922 max: 287481 average: 7335.94
smoothSolver:  Solving for k, Initial residual = 0.0840082, Final residual = 0.00370238, No Iterations 1
bounding k, min: -6.89023 max: 903.476 average: 14.068
ExecutionTime = 2.53 s  ClockTime = 3 s

Time = 25

smoothSolver:  Solving for Ux, Initial residual = 0.0187199, Final residual = 0.00103372, No Iterations 2
smoothSolver:  Solving for Uy, Initial residual = 0.0548283, Final residual = 0.00233841, No Iterations 2
GAMG:  Solving for p, Initial residual = 0.0302928, Final residual = 0.00189143, No Iterations 2
time step continuity errors : sum local = 0.0217553, global = -0.00423052, cumulative = 0.0499987
smoothSolver:  Solving for omega, Initial residual = 0.0275446, Final residual = 0.000601509, No Iterations 1
bounding omega, min: -729.421 max: 291573 average: 7367.73
smoothSolver:  Solving for k, Initial residual = 0.0834061, Final residual = 0.00447353, No Iterations 1
bounding k, min: -4.67206 max: 1193.58 average: 18.9158
ExecutionTime = 2.6 s  ClockTime = 3 s

Time = 26

smoothSolver:  Solving for Ux, Initial residual = 0.0187765, Final residual = 0.00106388, No Iterations 2
smoothSolver:  Solving for Uy, Initial residual = 0.0514711, Final residual = 0.00219661, No Iterations 2
GAMG:  Solving for p, Initial residual = 0.0325919, Final residual = 0.0014045, No Iterations 2
time step continuity errors : sum local = 0.0146409, global = 0.00116732, cumulative = 0.0511661
smoothSolver:  Solving for omega, Initial residual = 0.0268935, Final residual = 0.000694673, No Iterations 1
bounding omega, min: -628.558 max: 291839 average: 7394.52
smoothSolver:  Solving for k, Initial residual = 0.0870144, Final residual = 0.00523877, No Iterations 1
bounding k, min: -3.59342 max: 1405.34 average: 24.0911
ExecutionTime = 2.66 s  ClockTime = 3 s

Time = 27

smoothSolver:  Solving for Ux, Initial residual = 0.0189914, Final residual = 0.00110654, No Iterations 2
smoothSolver:  Solving for Uy, Initial residual = 0.0476347, Final residual = 0.00202397, No Iterations 2
GAMG:  Solving for p, Initial residual = 0.0387614, Final residual = 0.00387417, No Iterations 1
time step continuity errors : sum local = 0.037629, global = 0.00159461, cumulative = 0.0527607
smoothSolver:  Solving for omega, Initial residual = 0.0247849, Final residual = 0.000741604, No Iterations 1
bounding omega, min: -559.642 max: 287341 average: 7399.45
smoothSolver:  Solving for k, Initial residual = 0.0870659, Final residual = 0.00583025, No Iterations 1
bounding k, min: -3.68775 max: 1573.19 average: 29.4301
ExecutionTime = 2.73 s  ClockTime = 3 s

Time = 28

smoothSolver:  Solving for Ux, Initial residual = 0.0188319, Final residual = 0.00115867, No Iterations 2
smoothSolver:  Solving for Uy, Initial residual = 0.0432108, Final residual = 0.00188319, No Iterations 2
GAMG:  Solving for p, Initial residual = 0.0306446, Final residual = 0.00193019, No Iterations 2
time step continuity errors : sum local = 0.0253579, global = 0.00431731, cumulative = 0.057078
smoothSolver:  Solving for omega, Initial residual = 0.0247769, Final residual = 0.000808691, No Iterations 1
bounding omega, min: -703.157 max: 318184 average: 7383.08
smoothSolver:  Solving for k, Initial residual = 0.0901121, Final residual = 0.00645233, No Iterations 1
bounding k, min: -1.41993 max: 1695.19 average: 34.866
ExecutionTime = 2.8 s  ClockTime = 3 s

Time = 29

smoothSolver:  Solving for Ux, Initial residual = 0.0189626, Final residual = 0.00124638, No Iterations 2
smoothSolver:  Solving for Uy, Initial residual = 0.0449736, Final residual = 0.00200305, No Iterations 2
GAMG:  Solving for p, Initial residual = 0.0269826, Final residual = 0.00240913, No Iterations 2
time step continuity errors : sum local = 0.0315799, global = -0.00188032, cumulative = 0.0551977
smoothSolver:  Solving for omega, Initial residual = 0.0218247, Final residual = 0.000861938, No Iterations 1
bounding omega, min: -1015.62 max: 354606 average: 7344.87
smoothSolver:  Solving for k, Initial residual = 0.0950851, Final residual = 0.00717423, No Iterations 1
bounding k, min: -5.76133 max: 1793.38 average: 40.3557
ExecutionTime = 2.86 s  ClockTime = 3 s

Time = 30

smoothSolver:  Solving for Ux, Initial residual = 0.0191175, Final residual = 0.00136049, No Iterations 2
smoothSolver:  Solving for Uy, Initial residual = 0.0459127, Final residual = 0.00203932, No Iterations 2
GAMG:  Solving for p, Initial residual = 0.0206462, Final residual = 0.000969822, No Iterations 2
time step continuity errors : sum local = 0.0188764, global = 0.0043069, cumulative = 0.0595046
smoothSolver:  Solving for omega, Initial residual = 0.0187061, Final residual = 0.00092242, No Iterations 1
bounding omega, min: -1249.65 max: 391900 average: 7295.75
smoothSolver:  Solving for k, Initial residual = 0.096739, Final residual = 0.00789936, No Iterations 1
bounding k, min: -1.47319 max: 2376.76 average: 45.8383
ExecutionTime = 2.94 s  ClockTime = 3 s

Time = 31

smoothSolver:  Solving for Ux, Initial residual = 0.0194235, Final residual = 0.00150808, No Iterations 2
smoothSolver:  Solving for Uy, Initial residual = 0.0413454, Final residual = 0.00183908, No Iterations 2
GAMG:  Solving for p, Initial residual = 0.0533179, Final residual = 0.00232792, No Iterations 2
time step continuity errors : sum local = 0.0165633, global = 0.00155046, cumulative = 0.061055
smoothSolver:  Solving for omega, Initial residual = 0.0217675, Final residual = 0.00105946, No Iterations 1
bounding omega, min: -4597.92 max: 429900 average: 7231.7
smoothSolver:  Solving for k, Initial residual = 0.0948541, Final residual = 0.00182473, No Iterations 2
bounding k, min: -1.13292 max: 3221.38 average: 51.8057
ExecutionTime = 3.01 s  ClockTime = 3 s

Time = 32

smoothSolver:  Solving for Ux, Initial residual = 0.0197704, Final residual = 0.00167818, No Iterations 2
smoothSolver:  Solving for Uy, Initial residual = 0.0408191, Final residual = 0.00179402, No Iterations 2
GAMG:  Solving for p, Initial residual = 0.0719052, Final residual = 0.00301784, No Iterations 2
time step continuity errors : sum local = 0.0162144, global = 0.000565315, cumulative = 0.0616203
smoothSolver:  Solving for omega, Initial residual = 0.0251015, Final residual = 0.00127229, No Iterations 1
bounding omega, min: -4122.06 max: 469011 average: 7168.03
smoothSolver:  Solving for k, Initial residual = 0.0822023, Final residual = 0.00217923, No Iterations 2
bounding k, min: -5.15272 max: 3929.56 average: 57.6269
ExecutionTime = 3.08 s  ClockTime = 3 s

Time = 33

smoothSolver:  Solving for Ux, Initial residual = 0.0202127, Final residual = 0.00184249, No Iterations 2
smoothSolver:  Solving for Uy, Initial residual = 0.0408019, Final residual = 0.00178224, No Iterations 2
GAMG:  Solving for p, Initial residual = 0.0848198, Final residual = 0.00361083, No Iterations 2
time step continuity errors : sum local = 0.0166221, global = -0.000400999, cumulative = 0.0612193
smoothSolver:  Solving for omega, Initial residual = 0.0283625, Final residual = 0.001526, No Iterations 1
bounding omega, min: -13444.6 max: 506975 average: 7107.1
smoothSolver:  Solving for k, Initial residual = 0.0666856, Final residual = 0.00233117, No Iterations 2
bounding k, min: -2.6285 max: 4654.91 average: 63.0321
ExecutionTime = 3.15 s  ClockTime = 4 s

Time = 34

smoothSolver:  Solving for Ux, Initial residual = 0.0203989, Final residual = 0.00199676, No Iterations 2
smoothSolver:  Solving for Uy, Initial residual = 0.0411333, Final residual = 0.00178486, No Iterations 2
GAMG:  Solving for p, Initial residual = 0.0823632, Final residual = 0.00334696, No Iterations 2
time step continuity errors : sum local = 0.0161604, global = -1.93667e-05, cumulative = 0.0612
smoothSolver:  Solving for omega, Initial residual = 0.0249541, Final residual = 0.00171318, No Iterations 1
bounding omega, min: -4835.57 max: 542969 average: 7050.42
smoothSolver:  Solving for k, Initial residual = 0.0596155, Final residual = 0.00214198, No Iterations 2
bounding k, min: -1.3578 max: 5060.53 average: 67.8369
ExecutionTime = 3.22 s  ClockTime = 4 s

Time = 35

smoothSolver:  Solving for Ux, Initial residual = 0.0203621, Final residual = 0.000952727, No Iterations 3
smoothSolver:  Solving for Uy, Initial residual = 0.040972, Final residual = 0.00177816, No Iterations 2
GAMG:  Solving for p, Initial residual = 0.080351, Final residual = 0.00744373, No Iterations 1
time step continuity errors : sum local = 0.0408551, global = -0.000774579, cumulative = 0.0604254
smoothSolver:  Solving for omega, Initial residual = 0.0221031, Final residual = 0.00193926, No Iterations 1
bounding omega, min: -3819.01 max: 575315 average: 6986.48
smoothSolver:  Solving for k, Initial residual = 0.0559464, Final residual = 0.00219899, No Iterations 2
bounding k, min: -3.59146 max: 4832.67 average: 71.8181
ExecutionTime = 3.29 s  ClockTime = 4 s

Time = 36

smoothSolver:  Solving for Ux, Initial residual = 0.0200853, Final residual = 0.000968318, No Iterations 3
smoothSolver:  Solving for Uy, Initial residual = 0.0396302, Final residual = 0.00175864, No Iterations 2
GAMG:  Solving for p, Initial residual = 0.104656, Final residual = 0.00511281, No Iterations 2
time step continuity errors : sum local = 0.0269549, global = -0.00283474, cumulative = 0.0575907
smoothSolver:  Solving for omega, Initial residual = 0.018067, Final residual = 0.00051346, No Iterations 2
bounding omega, min: -8467.85 max: 604198 average: 6890.45
smoothSolver:  Solving for k, Initial residual = 0.0518714, Final residual = 0.00231918, No Iterations 2
bounding k, min: -2.09346 max: 4597.66 average: 75.3849
ExecutionTime = 3.36 s  ClockTime = 4 s

Time = 37

smoothSolver:  Solving for Ux, Initial residual = 0.0193594, Final residual = 0.000980835, No Iterations 3
smoothSolver:  Solving for Uy, Initial residual = 0.0433755, Final residual = 0.00197529, No Iterations 2
GAMG:  Solving for p, Initial residual = 0.142835, Final residual = 0.0114213, No Iterations 1
time step continuity errors : sum local = 0.0458526, global = 6.43226e-05, cumulative = 0.057655
smoothSolver:  Solving for omega, Initial residual = 0.0134412, Final residual = 0.000476159, No Iterations 2
bounding omega, min: -19289.7 max: 629614 average: 6815.07
smoothSolver:  Solving for k, Initial residual = 0.0471382, Final residual = 0.00239056, No Iterations 2
bounding k, min: -4.94255 max: 4311.36 average: 78.5825
ExecutionTime = 3.43 s  ClockTime = 4 s

Time = 38

smoothSolver:  Solving for Ux, Initial residual = 0.0186727, Final residual = 0.000976046, No Iterations 3
smoothSolver:  Solving for Uy, Initial residual = 0.0412283, Final residual = 0.00191252, No Iterations 2
GAMG:  Solving for p, Initial residual = 0.163899, Final residual = 0.0163551, No Iterations 1
time step continuity errors : sum local = 0.0597842, global = -0.00147185, cumulative = 0.0561831
smoothSolver:  Solving for omega, Initial residual = 0.0123925, Final residual = 0.000472149, No Iterations 2
bounding omega, min: -2197.43 max: 649281 average: 6734.09
smoothSolver:  Solving for k, Initial residual = 0.042564, Final residual = 0.00246494, No Iterations 2
bounding k, min: -7.93389 max: 3994.71 average: 81.4836
ExecutionTime = 3.49 s  ClockTime = 4 s

Time = 39

smoothSolver:  Solving for Ux, Initial residual = 0.0179993, Final residual = 0.000962497, No Iterations 3
smoothSolver:  Solving for Uy, Initial residual = 0.0398374, Final residual = 0.00185185, No Iterations 2
GAMG:  Solving for p, Initial residual = 0.168432, Final residual = 0.00747243, No Iterations 2
time step continuity errors : sum local = 0.026883, global = -0.000687473, cumulative = 0.0554957
smoothSolver:  Solving for omega, Initial residual = 0.0106309, Final residual = 0.000468453, No Iterations 2
bounding omega, min: -5356.02 max: 664964 average: 6666.65
smoothSolver:  Solving for k, Initial residual = 0.039395, Final residual = 0.00247163, No Iterations 2
bounding k, min: -3.52339 max: 3751.11 average: 84.0831
ExecutionTime = 3.57 s  ClockTime = 4 s

Time = 40

smoothSolver:  Solving for Ux, Initial residual = 0.017024, Final residual = 0.000942658, No Iterations 3
smoothSolver:  Solving for Uy, Initial residual = 0.0420692, Final residual = 0.00196841, No Iterations 2
GAMG:  Solving for p, Initial residual = 0.158366, Final residual = 0.0114606, No Iterations 1
time step continuity errors : sum local = 0.0416948, global = -0.0038584, cumulative = 0.0516372
smoothSolver:  Solving for omega, Initial residual = 0.00962776, Final residual = 0.000454756, No Iterations 2
bounding omega, min: -3516.54 max: 678054 average: 6599.16
smoothSolver:  Solving for k, Initial residual = 0.0370635, Final residual = 0.0024263, No Iterations 2
bounding k, min: -4.01747 max: 3532.88 average: 86.4393
ExecutionTime = 3.63 s  ClockTime = 4 s

Time = 41

smoothSolver:  Solving for Ux, Initial residual = 0.0162537, Final residual = 0.000924994, No Iterations 3
smoothSolver:  Solving for Uy, Initial residual = 0.0396375, Final residual = 0.00188781, No Iterations 2
GAMG:  Solving for p, Initial residual = 0.143966, Final residual = 0.0130047, No Iterations 1
time step continuity errors : sum local = 0.0576032, global = -0.00288331, cumulative = 0.0487539
smoothSolver:  Solving for omega, Initial residual = 0.00859956, Final residual = 0.00044169, No Iterations 2
bounding omega, min: -705.943 max: 688896 average: 6533.85
smoothSolver:  Solving for k, Initial residual = 0.03491, Final residual = 0.0023916, No Iterations 2
bounding k, min: -11.9263 max: 3404.56 average: 88.5583
ExecutionTime = 3.69 s  ClockTime = 4 s

Time = 42

smoothSolver:  Solving for Ux, Initial residual = 0.0154527, Final residual = 0.000916412, No Iterations 3
smoothSolver:  Solving for Uy, Initial residual = 0.0376764, Final residual = 0.00176822, No Iterations 2
GAMG:  Solving for p, Initial residual = 0.117106, Final residual = 0.0104684, No Iterations 1
time step continuity errors : sum local = 0.0633139, global = -0.000342166, cumulative = 0.0484118
smoothSolver:  Solving for omega, Initial residual = 0.0077029, Final residual = 0.000432169, No Iterations 2
bounding omega, min: -2510.21 max: 698168 average: 6474.73
smoothSolver:  Solving for k, Initial residual = 0.0321934, Final residual = 0.0023606, No Iterations 2
bounding k, min: -4.74577 max: 3359.79 average: 90.4319
ExecutionTime = 3.76 s  ClockTime = 4 s

Time = 43

smoothSolver:  Solving for Ux, Initial residual = 0.0147952, Final residual = 0.000908617, No Iterations 3
smoothSolver:  Solving for Uy, Initial residual = 0.0364119, Final residual = 0.00167801, No Iterations 2
GAMG:  Solving for p, Initial residual = 0.0628307, Final residual = 0.00264504, No Iterations 2
time step continuity errors : sum local = 0.0270606, global = -0.00466975, cumulative = 0.043742
smoothSolver:  Solving for omega, Initial residual = 0.00760403, Final residual = 0.000425327, No Iterations 2
bounding omega, min: -11358.5 max: 777151 average: 6433.02
smoothSolver:  Solving for k, Initial residual = 0.0304607, Final residual = 0.00232254, No Iterations 2
bounding k, min: -3.5705 max: 3657.08 average: 92.0862
ExecutionTime = 3.83 s  ClockTime = 4 s

Time = 44

smoothSolver:  Solving for Ux, Initial residual = 0.0140957, Final residual = 0.000896411, No Iterations 3
smoothSolver:  Solving for Uy, Initial residual = 0.0369749, Final residual = 0.0017144, No Iterations 2
GAMG:  Solving for p, Initial residual = 0.0904994, Final residual = 0.00464731, No Iterations 1
time step continuity errors : sum local = 0.0351277, global = -0.00613688, cumulative = 0.0376051
smoothSolver:  Solving for omega, Initial residual = 0.0286923, Final residual = 0.00130922, No Iterations 1
bounding omega, min: -1424.44 max: 709959 average: 6383.17
smoothSolver:  Solving for k, Initial residual = 0.0289827, Final residual = 0.00232126, No Iterations 2
bounding k, min: -5.57827 max: 4019.81 average: 93.3877
ExecutionTime = 3.89 s  ClockTime = 4 s

Time = 45

smoothSolver:  Solving for Ux, Initial residual = 0.0136184, Final residual = 0.00087135, No Iterations 3
smoothSolver:  Solving for Uy, Initial residual = 0.0353977, Final residual = 0.00165085, No Iterations 2
GAMG:  Solving for p, Initial residual = 0.0915648, Final residual = 0.00676193, No Iterations 1
time step continuity errors : sum local = 0.0456619, global = -0.00656202, cumulative = 0.0310431
smoothSolver:  Solving for omega, Initial residual = 0.00797337, Final residual = 0.000434221, No Iterations 2
bounding omega, min: -2885.64 max: 713055 average: 6324.39
smoothSolver:  Solving for k, Initial residual = 0.0271205, Final residual = 0.00225024, No Iterations 2
bounding k, min: -5.34025 max: 4145.94 average: 94.505
ExecutionTime = 3.96 s  ClockTime = 4 s

Time = 46

smoothSolver:  Solving for Ux, Initial residual = 0.0131806, Final residual = 0.00084564, No Iterations 3
smoothSolver:  Solving for Uy, Initial residual = 0.0343568, Final residual = 0.00161815, No Iterations 2
GAMG:  Solving for p, Initial residual = 0.0914151, Final residual = 0.00726147, No Iterations 1
time step continuity errors : sum local = 0.0534729, global = -0.00606731, cumulative = 0.0249758
smoothSolver:  Solving for omega, Initial residual = 0.00622631, Final residual = 0.000400831, No Iterations 2
bounding omega, min: -1605.5 max: 714850 average: 6268.32
smoothSolver:  Solving for k, Initial residual = 0.0258586, Final residual = 0.00211794, No Iterations 2
bounding k, min: -6.87243 max: 4198 average: 95.4899
ExecutionTime = 4.02 s  ClockTime = 4 s

Time = 47

smoothSolver:  Solving for Ux, Initial residual = 0.0126465, Final residual = 0.000821929, No Iterations 3
smoothSolver:  Solving for Uy, Initial residual = 0.0332462, Final residual = 0.00156949, No Iterations 2
GAMG:  Solving for p, Initial residual = 0.0832833, Final residual = 0.00711338, No Iterations 1
time step continuity errors : sum local = 0.0534595, global = -0.0056098, cumulative = 0.019366
smoothSolver:  Solving for omega, Initial residual = 0.00602878, Final residual = 0.000382586, No Iterations 2
bounding omega, min: -2571.36 max: 715159 average: 6216.13
smoothSolver:  Solving for k, Initial residual = 0.0244393, Final residual = 0.00203115, No Iterations 2
bounding k, min: -3.86662 max: 4223.42 average: 96.3565
ExecutionTime = 4.08 s  ClockTime = 4 s

Time = 48

smoothSolver:  Solving for Ux, Initial residual = 0.0122567, Final residual = 0.000803332, No Iterations 3
smoothSolver:  Solving for Uy, Initial residual = 0.0330482, Final residual = 0.00158857, No Iterations 2
GAMG:  Solving for p, Initial residual = 0.064775, Final residual = 0.00519214, No Iterations 1
time step continuity errors : sum local = 0.0497058, global = -0.00553271, cumulative = 0.0138333
smoothSolver:  Solving for omega, Initial residual = 0.00584758, Final residual = 0.000372399, No Iterations 2
bounding omega, min: -381.618 max: 714815 average: 6165.63
smoothSolver:  Solving for k, Initial residual = 0.023264, Final residual = 0.00193169, No Iterations 2
bounding k, min: -1.38618 max: 4193.36 average: 97.1516
ExecutionTime = 4.15 s  ClockTime = 5 s

Time = 49

smoothSolver:  Solving for Ux, Initial residual = 0.0118536, Final residual = 0.000785925, No Iterations 3
smoothSolver:  Solving for Uy, Initial residual = 0.0328157, Final residual = 0.00160394, No Iterations 2
GAMG:  Solving for p, Initial residual = 0.0654615, Final residual = 0.00514609, No Iterations 1
time step continuity errors : sum local = 0.0494793, global = -0.00694774, cumulative = 0.00688557
smoothSolver:  Solving for omega, Initial residual = 0.00519182, Final residual = 0.000365547, No Iterations 2
bounding omega, min: -1420.67 max: 714343 average: 6117.2
smoothSolver:  Solving for k, Initial residual = 0.0221634, Final residual = 0.00186128, No Iterations 2
bounding k, min: -3.1131 max: 4139.51 average: 97.8808
ExecutionTime = 4.22 s  ClockTime = 5 s

Time = 50

smoothSolver:  Solving for Ux, Initial residual = 0.0114757, Final residual = 0.000774264, No Iterations 3
smoothSolver:  Solving for Uy, Initial residual = 0.0327256, Final residual = 0.00161235, No Iterations 2
GAMG:  Solving for p, Initial residual = 0.0507832, Final residual = 0.00376334, No Iterations 1
time step continuity errors : sum local = 0.0488773, global = -0.00551183, cumulative = 0.00137374
smoothSolver:  Solving for omega, Initial residual = 0.00541541, Final residual = 0.000358462, No Iterations 2
bounding omega, min: -903.382 max: 712781 average: 6067.89
smoothSolver:  Solving for k, Initial residual = 0.0211682, Final residual = 0.00177651, No Iterations 2
bounding k, min: -2.8468 max: 4079.43 average: 98.5657
ExecutionTime = 4.28 s  ClockTime = 5 s

Time = 51

smoothSolver:  Solving for Ux, Initial residual = 0.0111148, Final residual = 0.000762478, No Iterations 3
smoothSolver:  Solving for Uy, Initial residual = 0.0320101, Final residual = 0.00160015, No Iterations 2
GAMG:  Solving for p, Initial residual = 0.0541008, Final residual = 0.00460465, No Iterations 1
time step continuity errors : sum local = 0.0508447, global = -0.00548179, cumulative = -0.00410805
smoothSolver:  Solving for omega, Initial residual = 0.00489367, Final residual = 0.000352184, No Iterations 2
bounding omega, min: -349.068 max: 710094 average: 6020.24
smoothSolver:  Solving for k, Initial residual = 0.0204166, Final residual = 0.00169972, No Iterations 2
bounding k, min: -4.09192 max: 4022.8 average: 99.2047
ExecutionTime = 4.34 s  ClockTime = 5 s

Time = 52

smoothSolver:  Solving for Ux, Initial residual = 0.0108496, Final residual = 0.00075031, No Iterations 3
smoothSolver:  Solving for Uy, Initial residual = 0.0315832, Final residual = 0.00158942, No Iterations 2
GAMG:  Solving for p, Initial residual = 0.0700335, Final residual = 0.00554374, No Iterations 1
time step continuity errors : sum local = 0.0479727, global = -0.00494034, cumulative = -0.00904839
smoothSolver:  Solving for omega, Initial residual = 0.00471549, Final residual = 0.000345731, No Iterations 2
bounding omega, min: -598.14 max: 707045 average: 5973.17
smoothSolver:  Solving for k, Initial residual = 0.0192093, Final residual = 0.00161576, No Iterations 2
bounding k, min: -3.73799 max: 3952.25 average: 99.8203
ExecutionTime = 4.4 s  ClockTime = 5 s

Time = 53

smoothSolver:  Solving for Ux, Initial residual = 0.0105854, Final residual = 0.000739952, No Iterations 3
smoothSolver:  Solving for Uy, Initial residual = 0.0308461, Final residual = 0.00156559, No Iterations 2
GAMG:  Solving for p, Initial residual = 0.0879721, Final residual = 0.00721461, No Iterations 1
time step continuity errors : sum local = 0.0486536, global = -0.00527989, cumulative = -0.0143283
smoothSolver:  Solving for omega, Initial residual = 0.00460933, Final residual = 0.000339869, No Iterations 2
bounding omega, min: -406.401 max: 703247 average: 5927.24
smoothSolver:  Solving for k, Initial residual = 0.0185619, Final residual = 0.00154112, No Iterations 2
bounding k, min: -3.62662 max: 3859.66 average: 100.411
ExecutionTime = 4.47 s  ClockTime = 5 s

Time = 54

smoothSolver:  Solving for Ux, Initial residual = 0.0103189, Final residual = 0.000727758, No Iterations 3
smoothSolver:  Solving for Uy, Initial residual = 0.0303642, Final residual = 0.00154004, No Iterations 2
GAMG:  Solving for p, Initial residual = 0.0942809, Final residual = 0.00831103, No Iterations 1
time step continuity errors : sum local = 0.0494047, global = -0.00581862, cumulative = -0.0201469
smoothSolver:  Solving for omega, Initial residual = 0.00434907, Final residual = 0.000334617, No Iterations 2
bounding omega, min: -213.773 max: 699196 average: 5882.58
smoothSolver:  Solving for k, Initial residual = 0.0177365, Final residual = 0.00148321, No Iterations 2
bounding k, min: -1.40026 max: 3782.77 average: 100.978
ExecutionTime = 4.53 s  ClockTime = 5 s

Time = 55

smoothSolver:  Solving for Ux, Initial residual = 0.0100497, Final residual = 0.000718051, No Iterations 3
smoothSolver:  Solving for Uy, Initial residual = 0.0298069, Final residual = 0.00151854, No Iterations 2
GAMG:  Solving for p, Initial residual = 0.0977133, Final residual = 0.00790078, No Iterations 1
time step continuity errors : sum local = 0.0439584, global = -0.00642767, cumulative = -0.0265746
smoothSolver:  Solving for omega, Initial residual = 0.00417434, Final residual = 0.000329658, No Iterations 2
bounding omega, min: -178.786 max: 694550 average: 5837.29
smoothSolver:  Solving for k, Initial residual = 0.0172857, Final residual = 0.00143646, No Iterations 2
bounding k, min: -1.09576 max: 3693.64 average: 101.544
ExecutionTime = 4.59 s  ClockTime = 5 s

Time = 56

smoothSolver:  Solving for Ux, Initial residual = 0.00987875, Final residual = 0.000707271, No Iterations 3
smoothSolver:  Solving for Uy, Initial residual = 0.0291398, Final residual = 0.00150298, No Iterations 2
GAMG:  Solving for p, Initial residual = 0.0994366, Final residual = 0.00800225, No Iterations 1
time step continuity errors : sum local = 0.0439036, global = -0.0061574, cumulative = -0.032732
smoothSolver:  Solving for omega, Initial residual = 0.00397788, Final residual = 0.000326135, No Iterations 2
bounding omega, min: -305.171 max: 690027 average: 5793.41
smoothSolver:  Solving for k, Initial residual = 0.0166715, Final residual = 0.00139893, No Iterations 2
bounding k, min: -1.30046 max: 3602.7 average: 102.091
ExecutionTime = 4.66 s  ClockTime = 5 s

Time = 57

smoothSolver:  Solving for Ux, Initial residual = 0.00974523, Final residual = 0.000698511, No Iterations 3
smoothSolver:  Solving for Uy, Initial residual = 0.0285392, Final residual = 0.00149388, No Iterations 2
GAMG:  Solving for p, Initial residual = 0.0962182, Final residual = 0.00836116, No Iterations 1
time step continuity errors : sum local = 0.0452785, global = -0.00499942, cumulative = -0.0377314
smoothSolver:  Solving for omega, Initial residual = 0.00380695, Final residual = 0.000320605, No Iterations 2
bounding omega, min: -886.218 max: 685170 average: 5750.65
smoothSolver:  Solving for k, Initial residual = 0.0162501, Final residual = 0.00135817, No Iterations 2
bounding k, min: -2.45116 max: 3521.7 average: 102.622
ExecutionTime = 4.72 s  ClockTime = 5 s

Time = 58

smoothSolver:  Solving for Ux, Initial residual = 0.00960046, Final residual = 0.000690262, No Iterations 3
smoothSolver:  Solving for Uy, Initial residual = 0.0281195, Final residual = 0.00148558, No Iterations 2
GAMG:  Solving for p, Initial residual = 0.0942754, Final residual = 0.00859159, No Iterations 1
time step continuity errors : sum local = 0.0460383, global = -0.00435073, cumulative = -0.0420821
smoothSolver:  Solving for omega, Initial residual = 0.00374408, Final residual = 0.000316617, No Iterations 2
bounding omega, min: -47.9836 max: 680451 average: 5708.83
smoothSolver:  Solving for k, Initial residual = 0.0156771, Final residual = 0.00132427, No Iterations 2
bounding k, min: -4.87594 max: 3434.48 average: 103.116
ExecutionTime = 4.8 s  ClockTime = 5 s

Time = 59

smoothSolver:  Solving for Ux, Initial residual = 0.0094209, Final residual = 0.000681785, No Iterations 3
smoothSolver:  Solving for Uy, Initial residual = 0.02778, Final residual = 0.00149108, No Iterations 2
GAMG:  Solving for p, Initial residual = 0.0936271, Final residual = 0.00876217, No Iterations 1
time step continuity errors : sum local = 0.0463468, global = -0.00314303, cumulative = -0.0452251
smoothSolver:  Solving for omega, Initial residual = 0.00362254, Final residual = 0.000312976, No Iterations 2
bounding omega, min: -33.0924 max: 675573 average: 5668.11
smoothSolver:  Solving for k, Initial residual = 0.0153198, Final residual = 0.00128762, No Iterations 2
bounding k, min: -3.3655 max: 3358.79 average: 103.591
ExecutionTime = 4.86 s  ClockTime = 5 s

Time = 60

smoothSolver:  Solving for Ux, Initial residual = 0.00930603, Final residual = 0.000676421, No Iterations 3
smoothSolver:  Solving for Uy, Initial residual = 0.0273809, Final residual = 0.00149904, No Iterations 2
GAMG:  Solving for p, Initial residual = 0.095875, Final residual = 0.00925135, No Iterations 1
time step continuity errors : sum local = 0.0480491, global = -0.00235524, cumulative = -0.0475804
smoothSolver:  Solving for omega, Initial residual = 0.00345981, Final residual = 0.00030871, No Iterations 2
bounding omega, min: -209.469 max: 670574 average: 5627.87
smoothSolver:  Solving for k, Initial residual = 0.0149453, Final residual = 0.00126028, No Iterations 2
bounding k, min: -1.29919 max: 3284.68 average: 104.045
ExecutionTime = 4.93 s  ClockTime = 5 s

Time = 61

smoothSolver:  Solving for Ux, Initial residual = 0.00916165, Final residual = 0.000668346, No Iterations 3
smoothSolver:  Solving for Uy, Initial residual = 0.0271516, Final residual = 0.00149581, No Iterations 2
GAMG:  Solving for p, Initial residual = 0.0969511, Final residual = 0.00898954, No Iterations 1
time step continuity errors : sum local = 0.0468948, global = -0.00207817, cumulative = -0.0496586
smoothSolver:  Solving for omega, Initial residual = 0.0033685, Final residual = 0.000303428, No Iterations 2
bounding omega, min: -9.52871 max: 665753 average: 5588.64
smoothSolver:  Solving for k, Initial residual = 0.0145681, Final residual = 0.00124564, No Iterations 2
bounding k, min: -0.718025 max: 3203.89 average: 104.474
ExecutionTime = 4.99 s  ClockTime = 5 s

Time = 62

smoothSolver:  Solving for Ux, Initial residual = 0.00905396, Final residual = 0.000662479, No Iterations 3
smoothSolver:  Solving for Uy, Initial residual = 0.0269445, Final residual = 0.00150323, No Iterations 2
GAMG:  Solving for p, Initial residual = 0.0925784, Final residual = 0.00860107, No Iterations 1
time step continuity errors : sum local = 0.0453529, global = -0.00185998, cumulative = -0.0515185
smoothSolver:  Solving for omega, Initial residual = 0.00325937, Final residual = 0.000298998, No Iterations 2
bounding omega, min: -124.178 max: 661039 average: 5550.45
smoothSolver:  Solving for k, Initial residual = 0.0141, Final residual = 0.0012228, No Iterations 2
bounding k, min: -3.16893 max: 3130.33 average: 104.865
ExecutionTime = 5.05 s  ClockTime = 5 s

Time = 63

smoothSolver:  Solving for Ux, Initial residual = 0.00892817, Final residual = 0.000659085, No Iterations 3
smoothSolver:  Solving for Uy, Initial residual = 0.0266242, Final residual = 0.00152773, No Iterations 2
GAMG:  Solving for p, Initial residual = 0.089558, Final residual = 0.00816154, No Iterations 1
time step continuity errors : sum local = 0.044513, global = -0.00149014, cumulative = -0.0530087
smoothSolver:  Solving for omega, Initial residual = 0.00316093, Final residual = 0.000293706, No Iterations 2
bounding omega, min: -19.7952 max: 656181 average: 5512.84
smoothSolver:  Solving for k, Initial residual = 0.0137079, Final residual = 0.00120439, No Iterations 2
bounding k, min: -1.52461 max: 3058.46 average: 105.234
ExecutionTime = 5.12 s  ClockTime = 5 s

Time = 64

smoothSolver:  Solving for Ux, Initial residual = 0.00882818, Final residual = 0.000655427, No Iterations 3
smoothSolver:  Solving for Uy, Initial residual = 0.0265764, Final residual = 0.00153584, No Iterations 2
GAMG:  Solving for p, Initial residual = 0.08493, Final residual = 0.0078447, No Iterations 1
time step continuity errors : sum local = 0.0449254, global = -0.00105501, cumulative = -0.0540637
smoothSolver:  Solving for omega, Initial residual = 0.00307794, Final residual = 0.000289081, No Iterations 2
bounding omega, min: -308.425 max: 651267 average: 5476.04
smoothSolver:  Solving for k, Initial residual = 0.0133245, Final residual = 0.00119194, No Iterations 2
bounding k, min: -3.73611 max: 2992.48 average: 105.583
ExecutionTime = 5.18 s  ClockTime = 6 s

Time = 65

smoothSolver:  Solving for Ux, Initial residual = 0.00869225, Final residual = 0.000649657, No Iterations 3
smoothSolver:  Solving for Uy, Initial residual = 0.0265066, Final residual = 0.00153263, No Iterations 2
GAMG:  Solving for p, Initial residual = 0.0836258, Final residual = 0.00764664, No Iterations 1
time step continuity errors : sum local = 0.0452513, global = -0.000811119, cumulative = -0.0548748
smoothSolver:  Solving for omega, Initial residual = 0.00296773, Final residual = 0.000284524, No Iterations 2
bounding omega, min: -8170.7 max: 646369 average: 5441.44
smoothSolver:  Solving for k, Initial residual = 0.0129764, Final residual = 0.00118827, No Iterations 2
bounding k, min: -9.11381 max: 2928.33 average: 105.904
ExecutionTime = 5.25 s  ClockTime = 6 s

Time = 66

smoothSolver:  Solving for Ux, Initial residual = 0.00859554, Final residual = 0.000644093, No Iterations 3
smoothSolver:  Solving for Uy, Initial residual = 0.026373, Final residual = 0.00154884, No Iterations 2
GAMG:  Solving for p, Initial residual = 0.0787258, Final residual = 0.0073114, No Iterations 1
time step continuity errors : sum local = 0.0458113, global = -0.000781163, cumulative = -0.055656
smoothSolver:  Solving for omega, Initial residual = 0.00301462, Final residual = 0.00027826, No Iterations 2
smoothSolver:  Solving for k, Initial residual = 0.0127618, Final residual = 0.00118201, No Iterations 2
bounding k, min: -3.3433 max: 2868.1 average: 106.202
ExecutionTime = 5.31 s  ClockTime = 6 s

Time = 67

smoothSolver:  Solving for Ux, Initial residual = 0.00843694, Final residual = 0.000638172, No Iterations 3
smoothSolver:  Solving for Uy, Initial residual = 0.0262548, Final residual = 0.00155937, No Iterations 2
GAMG:  Solving for p, Initial residual = 0.0718562, Final residual = 0.00665847, No Iterations 1
time step continuity errors : sum local = 0.045706, global = -0.000931982, cumulative = -0.0565879
smoothSolver:  Solving for omega, Initial residual = 0.00278437, Final residual = 0.000273124, No Iterations 2
smoothSolver:  Solving for k, Initial residual = 0.0124584, Final residual = 0.0011775, No Iterations 2
bounding k, min: -8.61279 max: 2807.65 average: 106.474
ExecutionTime = 5.39 s  ClockTime = 6 s

Time = 68

smoothSolver:  Solving for Ux, Initial residual = 0.00831661, Final residual = 0.000632302, No Iterations 3
smoothSolver:  Solving for Uy, Initial residual = 0.0261943, Final residual = 0.001568, No Iterations 2
GAMG:  Solving for p, Initial residual = 0.0618343, Final residual = 0.00575656, No Iterations 1
time step continuity errors : sum local = 0.0458583, global = -0.00090616, cumulative = -0.0574941
smoothSolver:  Solving for omega, Initial residual = 0.00274131, Final residual = 0.000268384, No Iterations 2
bounding omega, min: -181.045 max: 632508 average: 5335.55
smoothSolver:  Solving for k, Initial residual = 0.0122341, Final residual = 0.00117223, No Iterations 2
bounding k, min: -0.960465 max: 2748.62 average: 106.714
ExecutionTime = 5.46 s  ClockTime = 6 s

Time = 69

smoothSolver:  Solving for Ux, Initial residual = 0.00817394, Final residual = 0.00062549, No Iterations 3
smoothSolver:  Solving for Uy, Initial residual = 0.0261487, Final residual = 0.00158145, No Iterations 2
GAMG:  Solving for p, Initial residual = 0.0409833, Final residual = 0.00383405, No Iterations 1
time step continuity errors : sum local = 0.04562, global = -0.00067011, cumulative = -0.0581642
smoothSolver:  Solving for omega, Initial residual = 0.00264158, Final residual = 0.000262349, No Iterations 2
smoothSolver:  Solving for k, Initial residual = 0.0119561, Final residual = 0.00116529, No Iterations 2
bounding k, min: -1.10509 max: 2687.5 average: 106.928
ExecutionTime = 5.52 s  ClockTime = 6 s

Time = 70

smoothSolver:  Solving for Ux, Initial residual = 0.00802131, Final residual = 0.000620636, No Iterations 3
smoothSolver:  Solving for Uy, Initial residual = 0.0260465, Final residual = 0.00159071, No Iterations 2
GAMG:  Solving for p, Initial residual = 0.044734, Final residual = 0.0041776, No Iterations 1
time step continuity errors : sum local = 0.0456224, global = -0.000156423, cumulative = -0.0583206
smoothSolver:  Solving for omega, Initial residual = 0.00257977, Final residual = 0.000257801, No Iterations 2
smoothSolver:  Solving for k, Initial residual = 0.0117081, Final residual = 0.00116199, No Iterations 2
bounding k, min: -0.674136 max: 2838.38 average: 107.105
ExecutionTime = 5.59 s  ClockTime = 6 s

Time = 71

smoothSolver:  Solving for Ux, Initial residual = 0.00789532, Final residual = 0.000615906, No Iterations 3
smoothSolver:  Solving for Uy, Initial residual = 0.0259856, Final residual = 0.00160965, No Iterations 2
GAMG:  Solving for p, Initial residual = 0.047975, Final residual = 0.00456086, No Iterations 1
time step continuity errors : sum local = 0.0456824, global = 0.000497569, cumulative = -0.0578231
smoothSolver:  Solving for omega, Initial residual = 0.00248499, Final residual = 9.69279e-05, No Iterations 3
smoothSolver:  Solving for k, Initial residual = 0.0114342, Final residual = 0.000435853, No Iterations 3
bounding k, min: -3.39072 max: 2942.04 average: 107.224
ExecutionTime = 5.65 s  ClockTime = 6 s

Time = 72

smoothSolver:  Solving for Ux, Initial residual = 0.00775968, Final residual = 0.000609019, No Iterations 3
smoothSolver:  Solving for Uy, Initial residual = 0.0258387, Final residual = 0.00163431, No Iterations 2
GAMG:  Solving for p, Initial residual = 0.0490362, Final residual = 0.00472019, No Iterations 1
time step continuity errors : sum local = 0.0456044, global = 0.0011603, cumulative = -0.0566628
smoothSolver:  Solving for omega, Initial residual = 0.00234622, Final residual = 9.4315e-05, No Iterations 3
smoothSolver:  Solving for k, Initial residual = 0.0112738, Final residual = 0.000434971, No Iterations 3
bounding k, min: -1.60725 max: 2945.32 average: 107.327
ExecutionTime = 5.72 s  ClockTime = 6 s

Time = 73

smoothSolver:  Solving for Ux, Initial residual = 0.00763333, Final residual = 0.000602413, No Iterations 3
smoothSolver:  Solving for Uy, Initial residual = 0.0257182, Final residual = 0.00164722, No Iterations 2
GAMG:  Solving for p, Initial residual = 0.0503493, Final residual = 0.00482626, No Iterations 1
time step continuity errors : sum local = 0.0458475, global = 0.00168481, cumulative = -0.054978
smoothSolver:  Solving for omega, Initial residual = 0.00225202, Final residual = 9.10183e-05, No Iterations 3
smoothSolver:  Solving for k, Initial residual = 0.0109336, Final residual = 0.000431219, No Iterations 3
bounding k, min: -2.64088 max: 2820.74 average: 107.396
ExecutionTime = 5.79 s  ClockTime = 6 s

Time = 74

smoothSolver:  Solving for Ux, Initial residual = 0.00751354, Final residual = 0.000596016, No Iterations 3
smoothSolver:  Solving for Uy, Initial residual = 0.0257911, Final residual = 0.00164188, No Iterations 2
GAMG:  Solving for p, Initial residual = 0.0485782, Final residual = 0.00475869, No Iterations 1
time step continuity errors : sum local = 0.0452639, global = 0.00207331, cumulative = -0.0529047
smoothSolver:  Solving for omega, Initial residual = 0.00218207, Final residual = 8.83081e-05, No Iterations 3
smoothSolver:  Solving for k, Initial residual = 0.0106656, Final residual = 0.000428217, No Iterations 3
bounding k, min: -0.550548 max: 2628.95 average: 107.427
ExecutionTime = 5.86 s  ClockTime = 6 s

Time = 75

smoothSolver:  Solving for Ux, Initial residual = 0.00737473, Final residual = 0.000589752, No Iterations 3
smoothSolver:  Solving for Uy, Initial residual = 0.0256456, Final residual = 0.00164496, No Iterations 2
GAMG:  Solving for p, Initial residual = 0.0456915, Final residual = 0.00172062, No Iterations 2
time step continuity errors : sum local = 0.0164006, global = 0.000906114, cumulative = -0.0519985
smoothSolver:  Solving for omega, Initial residual = 0.00211221, Final residual = 8.56827e-05, No Iterations 3
smoothSolver:  Solving for k, Initial residual = 0.01043, Final residual = 0.000427016, No Iterations 3
bounding k, min: -1.01525 max: 2592.9 average: 107.422
ExecutionTime = 5.93 s  ClockTime = 6 s

Time = 76

smoothSolver:  Solving for Ux, Initial residual = 0.00717825, Final residual = 0.000583872, No Iterations 3
smoothSolver:  Solving for Uy, Initial residual = 0.025785, Final residual = 0.00169027, No Iterations 2
GAMG:  Solving for p, Initial residual = 0.0490114, Final residual = 0.00347854, No Iterations 1
time step continuity errors : sum local = 0.0299631, global = 0.00151999, cumulative = -0.0504786
smoothSolver:  Solving for omega, Initial residual = 0.00204779, Final residual = 8.33051e-05, No Iterations 3
smoothSolver:  Solving for k, Initial residual = 0.0102241, Final residual = 0.000425294, No Iterations 3
bounding k, min: -0.246575 max: 2687.51 average: 107.399
ExecutionTime = 6 s  ClockTime = 6 s

Time = 77

smoothSolver:  Solving for Ux, Initial residual = 0.0071039, Final residual = 0.000576932, No Iterations 3
smoothSolver:  Solving for Uy, Initial residual = 0.0257896, Final residual = 0.00168671, No Iterations 2
GAMG:  Solving for p, Initial residual = 0.0510762, Final residual = 0.0045866, No Iterations 1
time step continuity errors : sum local = 0.039786, global = 0.00150328, cumulative = -0.0489753
smoothSolver:  Solving for omega, Initial residual = 0.00196734, Final residual = 8.09258e-05, No Iterations 3
smoothSolver:  Solving for k, Initial residual = 0.0100482, Final residual = 0.000423276, No Iterations 3
bounding k, min: -0.373958 max: 2698.34 average: 107.364
ExecutionTime = 6.06 s  ClockTime = 6 s

Time = 78

smoothSolver:  Solving for Ux, Initial residual = 0.00700615, Final residual = 0.000570146, No Iterations 3
smoothSolver:  Solving for Uy, Initial residual = 0.0257862, Final residual = 0.00167738, No Iterations 2
GAMG:  Solving for p, Initial residual = 0.0500079, Final residual = 0.00154598, No Iterations 2
time step continuity errors : sum local = 0.0133653, global = 0.00138891, cumulative = -0.0475864
smoothSolver:  Solving for omega, Initial residual = 0.00191832, Final residual = 7.9024e-05, No Iterations 3
smoothSolver:  Solving for k, Initial residual = 0.00985999, Final residual = 0.000420551, No Iterations 3
bounding k, min: -0.964615 max: 2480.32 average: 107.287
ExecutionTime = 6.14 s  ClockTime = 7 s

Time = 79

smoothSolver:  Solving for Ux, Initial residual = 0.00689506, Final residual = 0.000565091, No Iterations 3
smoothSolver:  Solving for Uy, Initial residual = 0.0256868, Final residual = 0.00171141, No Iterations 2
GAMG:  Solving for p, Initial residual = 0.0468894, Final residual = 0.00360247, No Iterations 1
time step continuity errors : sum local = 0.0305422, global = 0.00217083, cumulative = -0.0454155
smoothSolver:  Solving for omega, Initial residual = 0.001871, Final residual = 7.68317e-05, No Iterations 3
smoothSolver:  Solving for k, Initial residual = 0.00968533, Final residual = 0.000416613, No Iterations 3
bounding k, min: -1.37368 max: 2455.35 average: 107.164
ExecutionTime = 6.2 s  ClockTime = 7 s

Time = 80

smoothSolver:  Solving for Ux, Initial residual = 0.00682358, Final residual = 0.000558945, No Iterations 3
smoothSolver:  Solving for Uy, Initial residual = 0.0254712, Final residual = 0.00171108, No Iterations 2
GAMG:  Solving for p, Initial residual = 0.0493329, Final residual = 0.00471194, No Iterations 1
time step continuity errors : sum local = 0.0390709, global = 0.0022803, cumulative = -0.0431352
smoothSolver:  Solving for omega, Initial residual = 0.00182672, Final residual = 7.51457e-05, No Iterations 3
smoothSolver:  Solving for k, Initial residual = 0.00952878, Final residual = 0.000413896, No Iterations 3
bounding k, min: -0.867788 max: 2465.1 average: 107.006
ExecutionTime = 6.27 s  ClockTime = 7 s

Time = 81

smoothSolver:  Solving for Ux, Initial residual = 0.00672359, Final residual = 0.000551432, No Iterations 3
smoothSolver:  Solving for Uy, Initial residual = 0.0253552, Final residual = 0.00169014, No Iterations 2
GAMG:  Solving for p, Initial residual = 0.0510089, Final residual = 0.00161608, No Iterations 2
time step continuity errors : sum local = 0.012881, global = 0.00156976, cumulative = -0.0415655
smoothSolver:  Solving for omega, Initial residual = 0.00177473, Final residual = 7.31534e-05, No Iterations 3
smoothSolver:  Solving for k, Initial residual = 0.00933961, Final residual = 0.000410015, No Iterations 3
bounding k, min: -0.332604 max: 2474.28 average: 106.826
ExecutionTime = 6.34 s  ClockTime = 7 s

Time = 82

smoothSolver:  Solving for Ux, Initial residual = 0.0065841, Final residual = 0.000543517, No Iterations 3
smoothSolver:  Solving for Uy, Initial residual = 0.0252186, Final residual = 0.0017099, No Iterations 2
GAMG:  Solving for p, Initial residual = 0.045323, Final residual = 0.00369891, No Iterations 1
time step continuity errors : sum local = 0.0288694, global = 0.00160114, cumulative = -0.0399643
smoothSolver:  Solving for omega, Initial residual = 0.00173826, Final residual = 7.14045e-05, No Iterations 3
smoothSolver:  Solving for k, Initial residual = 0.0091765, Final residual = 0.000405432, No Iterations 3
bounding k, min: -4.64052 max: 2485.64 average: 106.616
ExecutionTime = 6.42 s  ClockTime = 7 s

Time = 83

smoothSolver:  Solving for Ux, Initial residual = 0.00648446, Final residual = 0.000535772, No Iterations 3
smoothSolver:  Solving for Uy, Initial residual = 0.0248753, Final residual = 0.00170352, No Iterations 2
GAMG:  Solving for p, Initial residual = 0.0471288, Final residual = 0.00135626, No Iterations 2
time step continuity errors : sum local = 0.0104011, global = 0.000742399, cumulative = -0.0392219
smoothSolver:  Solving for omega, Initial residual = 0.00168938, Final residual = 6.95436e-05, No Iterations 3
smoothSolver:  Solving for k, Initial residual = 0.00901445, Final residual = 0.000401269, No Iterations 3
bounding k, min: -5.40271 max: 2496.07 average: 106.412
ExecutionTime = 6.51 s  ClockTime = 7 s

Time = 84

smoothSolver:  Solving for Ux, Initial residual = 0.0063556, Final residual = 0.000527711, No Iterations 3
smoothSolver:  Solving for Uy, Initial residual = 0.0248991, Final residual = 0.00170477, No Iterations 2
GAMG:  Solving for p, Initial residual = 0.0449593, Final residual = 0.00378829, No Iterations 1
time step continuity errors : sum local = 0.0292146, global = 0.000547746, cumulative = -0.0386742
smoothSolver:  Solving for omega, Initial residual = 0.00164896, Final residual = 6.78655e-05, No Iterations 3
smoothSolver:  Solving for k, Initial residual = 0.00885486, Final residual = 0.000396291, No Iterations 3
bounding k, min: -1.04232 max: 2505.55 average: 106.215
ExecutionTime = 6.57 s  ClockTime = 7 s

Time = 85

smoothSolver:  Solving for Ux, Initial residual = 0.00627617, Final residual = 0.00052098, No Iterations 3
smoothSolver:  Solving for Uy, Initial residual = 0.0245149, Final residual = 0.00169237, No Iterations 2
GAMG:  Solving for p, Initial residual = 0.045608, Final residual = 0.0014475, No Iterations 2
time step continuity errors : sum local = 0.0109484, global = 0.000140604, cumulative = -0.0385336
smoothSolver:  Solving for omega, Initial residual = 0.00159669, Final residual = 6.59247e-05, No Iterations 3
smoothSolver:  Solving for k, Initial residual = 0.00869693, Final residual = 0.000391501, No Iterations 3
bounding k, min: -0.984123 max: 2514.09 average: 106.032
ExecutionTime = 6.64 s  ClockTime = 7 s

Time = 86

smoothSolver:  Solving for Ux, Initial residual = 0.00614503, Final residual = 0.000512342, No Iterations 3
smoothSolver:  Solving for Uy, Initial residual = 0.0242315, Final residual = 0.0016908, No Iterations 2
GAMG:  Solving for p, Initial residual = 0.0413398, Final residual = 0.00378061, No Iterations 1
time step continuity errors : sum local = 0.0266384, global = 7.40942e-05, cumulative = -0.0384595
smoothSolver:  Solving for omega, Initial residual = 0.00155961, Final residual = 6.44721e-05, No Iterations 3
smoothSolver:  Solving for k, Initial residual = 0.00854576, Final residual = 0.000385945, No Iterations 3
bounding k, min: -1.93867 max: 2521.67 average: 105.86
ExecutionTime = 6.71 s  ClockTime = 7 s

Time = 87

smoothSolver:  Solving for Ux, Initial residual = 0.00604112, Final residual = 0.000505048, No Iterations 3
smoothSolver:  Solving for Uy, Initial residual = 0.0238378, Final residual = 0.00167207, No Iterations 2
GAMG:  Solving for p, Initial residual = 0.0487481, Final residual = 0.0016628, No Iterations 2
time step continuity errors : sum local = 0.0105172, global = -8.88297e-05, cumulative = -0.0385483
smoothSolver:  Solving for omega, Initial residual = 0.0015212, Final residual = 6.29577e-05, No Iterations 3
smoothSolver:  Solving for k, Initial residual = 0.00839822, Final residual = 0.000381245, No Iterations 3
bounding k, min: -1.25652 max: 2528.32 average: 105.699
ExecutionTime = 6.78 s  ClockTime = 7 s

Time = 88

smoothSolver:  Solving for Ux, Initial residual = 0.00590975, Final residual = 0.000497178, No Iterations 3
smoothSolver:  Solving for Uy, Initial residual = 0.0237306, Final residual = 0.00167196, No Iterations 2
GAMG:  Solving for p, Initial residual = 0.046953, Final residual = 0.00451499, No Iterations 1
time step continuity errors : sum local = 0.0267545, global = -3.08858e-05, cumulative = -0.0385792
smoothSolver:  Solving for omega, Initial residual = 0.0014846, Final residual = 6.13424e-05, No Iterations 3
smoothSolver:  Solving for k, Initial residual = 0.0082545, Final residual = 0.000375442, No Iterations 3
bounding k, min: -5.23279 max: 2534.04 average: 105.554
ExecutionTime = 6.85 s  ClockTime = 7 s

Time = 89

smoothSolver:  Solving for Ux, Initial residual = 0.00583544, Final residual = 0.00049063, No Iterations 3
smoothSolver:  Solving for Uy, Initial residual = 0.0234884, Final residual = 0.00166403, No Iterations 2
GAMG:  Solving for p, Initial residual = 0.0524547, Final residual = 0.00186523, No Iterations 2
time step continuity errors : sum local = 0.0100652, global = -8.36126e-05, cumulative = -0.0386628
smoothSolver:  Solving for omega, Initial residual = 0.00144599, Final residual = 5.99108e-05, No Iterations 3
smoothSolver:  Solving for k, Initial residual = 0.0081061, Final residual = 0.000369498, No Iterations 3
bounding k, min: -1.53341 max: 2538.86 average: 105.414
ExecutionTime = 6.93 s  ClockTime = 7 s

Time = 90

smoothSolver:  Solving for Ux, Initial residual = 0.0057125, Final residual = 0.000482626, No Iterations 3
smoothSolver:  Solving for Uy, Initial residual = 0.0236243, Final residual = 0.00168959, No Iterations 2
GAMG:  Solving for p, Initial residual = 0.0487403, Final residual = 0.00129644, No Iterations 2
time step continuity errors : sum local = 0.00664964, global = -5.28922e-05, cumulative = -0.0387157
smoothSolver:  Solving for omega, Initial residual = 0.00140743, Final residual = 5.84913e-05, No Iterations 3
smoothSolver:  Solving for k, Initial residual = 0.00797395, Final residual = 0.000363473, No Iterations 3
bounding k, min: -23.2957 max: 2542.81 average: 105.279
ExecutionTime = 7 s  ClockTime = 7 s

Time = 91

smoothSolver:  Solving for Ux, Initial residual = 0.00564801, Final residual = 0.000476587, No Iterations 3
smoothSolver:  Solving for Uy, Initial residual = 0.0236542, Final residual = 0.00170757, No Iterations 2
GAMG:  Solving for p, Initial residual = 0.0466072, Final residual = 0.00135309, No Iterations 2
time step continuity errors : sum local = 0.00677278, global = 7.8781e-06, cumulative = -0.0387078
smoothSolver:  Solving for omega, Initial residual = 0.00137443, Final residual = 5.70028e-05, No Iterations 3
smoothSolver:  Solving for k, Initial residual = 0.00785311, Final residual = 0.00035731, No Iterations 3
bounding k, min: -1.12252 max: 2545.92 average: 105.142
ExecutionTime = 7.07 s  ClockTime = 7 s

Time = 92

smoothSolver:  Solving for Ux, Initial residual = 0.00554938, Final residual = 0.000469476, No Iterations 3
smoothSolver:  Solving for Uy, Initial residual = 0.0233384, Final residual = 0.00169096, No Iterations 2
GAMG:  Solving for p, Initial residual = 0.0481735, Final residual = 0.00153081, No Iterations 2
time step continuity errors : sum local = 0.00735842, global = 0.000115599, cumulative = -0.0385922
smoothSolver:  Solving for omega, Initial residual = 0.00134644, Final residual = 5.57208e-05, No Iterations 3
smoothSolver:  Solving for k, Initial residual = 0.00773117, Final residual = 0.000351278, No Iterations 3
bounding k, min: -3.85358 max: 2548.23 average: 105.008
ExecutionTime = 7.14 s  ClockTime = 8 s

Time = 93

smoothSolver:  Solving for Ux, Initial residual = 0.00543853, Final residual = 0.000461022, No Iterations 3
smoothSolver:  Solving for Uy, Initial residual = 0.022977, Final residual = 0.00167771, No Iterations 2
GAMG:  Solving for p, Initial residual = 0.0453927, Final residual = 0.00155239, No Iterations 2
time step continuity errors : sum local = 0.00714918, global = 0.000231672, cumulative = -0.0383606
smoothSolver:  Solving for omega, Initial residual = 0.00131051, Final residual = 5.42482e-05, No Iterations 3
smoothSolver:  Solving for k, Initial residual = 0.00761435, Final residual = 0.000345563, No Iterations 3
bounding k, min: -9.48592 max: 2549.77 average: 104.87
ExecutionTime = 7.21 s  ClockTime = 8 s

Time = 94

smoothSolver:  Solving for Ux, Initial residual = 0.00533045, Final residual = 0.000453064, No Iterations 3
smoothSolver:  Solving for Uy, Initial residual = 0.0227422, Final residual = 0.00166817, No Iterations 2
GAMG:  Solving for p, Initial residual = 0.0453203, Final residual = 0.00155305, No Iterations 2
time step continuity errors : sum local = 0.00684521, global = 0.00040793, cumulative = -0.0379526
smoothSolver:  Solving for omega, Initial residual = 0.0012814, Final residual = 5.30248e-05, No Iterations 3
smoothSolver:  Solving for k, Initial residual = 0.00750167, Final residual = 0.000339646, No Iterations 3
bounding k, min: -5.56915 max: 2550.58 average: 104.736
ExecutionTime = 7.28 s  ClockTime = 8 s

Time = 95

smoothSolver:  Solving for Ux, Initial residual = 0.00523945, Final residual = 0.00044601, No Iterations 3
smoothSolver:  Solving for Uy, Initial residual = 0.0226826, Final residual = 0.00165705, No Iterations 2
GAMG:  Solving for p, Initial residual = 0.0483862, Final residual = 0.00187647, No Iterations 2
time step continuity errors : sum local = 0.00800677, global = 0.000626451, cumulative = -0.0373262
smoothSolver:  Solving for omega, Initial residual = 0.00124875, Final residual = 5.15785e-05, No Iterations 3
smoothSolver:  Solving for k, Initial residual = 0.00738551, Final residual = 0.000333315, No Iterations 3
bounding k, min: -10.8332 max: 2550.95 average: 104.606
ExecutionTime = 7.35 s  ClockTime = 8 s

Time = 96

smoothSolver:  Solving for Ux, Initial residual = 0.0051616, Final residual = 0.000439066, No Iterations 3
smoothSolver:  Solving for Uy, Initial residual = 0.0228333, Final residual = 0.00164883, No Iterations 2
GAMG:  Solving for p, Initial residual = 0.0582876, Final residual = 0.00203035, No Iterations 2
time step continuity errors : sum local = 0.00854642, global = 0.00080916, cumulative = -0.036517
smoothSolver:  Solving for omega, Initial residual = 0.00122141, Final residual = 5.0309e-05, No Iterations 3
smoothSolver:  Solving for k, Initial residual = 0.00727304, Final residual = 0.000326815, No Iterations 3
bounding k, min: -5.45673 max: 2550.89 average: 104.485
ExecutionTime = 7.43 s  ClockTime = 8 s

Time = 97

smoothSolver:  Solving for Ux, Initial residual = 0.00509232, Final residual = 0.000432176, No Iterations 3
smoothSolver:  Solving for Uy, Initial residual = 0.0230629, Final residual = 0.00166075, No Iterations 2
GAMG:  Solving for p, Initial residual = 0.0486182, Final residual = 0.00169928, No Iterations 2
time step continuity errors : sum local = 0.00676912, global = 0.000911614, cumulative = -0.0356054
smoothSolver:  Solving for omega, Initial residual = 0.00119447, Final residual = 4.90942e-05, No Iterations 3
smoothSolver:  Solving for k, Initial residual = 0.00715989, Final residual = 0.000320477, No Iterations 3
bounding k, min: -2.5615 max: 2550.16 average: 104.363
ExecutionTime = 7.5 s  ClockTime = 8 s

Time = 98

smoothSolver:  Solving for Ux, Initial residual = 0.00499927, Final residual = 0.000425803, No Iterations 3
smoothSolver:  Solving for Uy, Initial residual = 0.0228461, Final residual = 0.0016464, No Iterations 2
GAMG:  Solving for p, Initial residual = 0.0461711, Final residual = 0.00177596, No Iterations 2
time step continuity errors : sum local = 0.0068339, global = 0.00101261, cumulative = -0.0345928
smoothSolver:  Solving for omega, Initial residual = 0.00117192, Final residual = 4.7985e-05, No Iterations 3
smoothSolver:  Solving for k, Initial residual = 0.00704565, Final residual = 0.000313803, No Iterations 3
bounding k, min: -3.0965 max: 2548.81 average: 104.24
ExecutionTime = 7.57 s  ClockTime = 8 s

Time = 99

smoothSolver:  Solving for Ux, Initial residual = 0.00491328, Final residual = 0.000419507, No Iterations 3
smoothSolver:  Solving for Uy, Initial residual = 0.0225488, Final residual = 0.00161735, No Iterations 2
GAMG:  Solving for p, Initial residual = 0.0481342, Final residual = 0.00181325, No Iterations 2
time step continuity errors : sum local = 0.00691995, global = 0.00102192, cumulative = -0.0335709
smoothSolver:  Solving for omega, Initial residual = 0.00114324, Final residual = 4.66935e-05, No Iterations 3
smoothSolver:  Solving for k, Initial residual = 0.0069353, Final residual = 0.000308128, No Iterations 3
bounding k, min: -3.16968 max: 2546.91 average: 104.118
ExecutionTime = 7.65 s  ClockTime = 8 s

Time = 100

smoothSolver:  Solving for Ux, Initial residual = 0.00483432, Final residual = 0.000413576, No Iterations 3
smoothSolver:  Solving for Uy, Initial residual = 0.0223954, Final residual = 0.00159433, No Iterations 2
GAMG:  Solving for p, Initial residual = 0.0461299, Final residual = 0.00169291, No Iterations 2
time step continuity errors : sum local = 0.00606238, global = 0.000843893, cumulative = -0.032727
smoothSolver:  Solving for omega, Initial residual = 0.00111733, Final residual = 4.5478e-05, No Iterations 3
smoothSolver:  Solving for k, Initial residual = 0.00682353, Final residual = 0.000302238, No Iterations 3
bounding k, min: -3.12038 max: 2544.49 average: 103.997
ExecutionTime = 7.85 s  ClockTime = 8 s

    functionObjects::turbulenceFields stressComponents writing field: turbulenceProperties:devReff

    functionObjects::pressure pressureCoefficient writing field: cp
writeCellCentres writeCellCentres write:
    writing cell-centres field C to 100
    Writing the x component field of the cell-centres Cx to 100
    Writing the y component field of the cell-centres Cy to 100
    Writing the z component field of the cell-centres Cz to 100
wallShearStress wallShearStress write:
    writing field wallShearStress
    min/max(upperWall) = (-43.3576 -0.0287719 -1.04361e-19), (94.0393 0.190437 1.8984e-19)
    min/max(lowerWall) = (-24.7119 -1.16031 -1.48383e-18), (26.5068 0.523844 1.3735e-18)
Time = 101

smoothSolver:  Solving for Ux, Initial residual = 0.00474849, Final residual = 0.000407566, No Iterations 3
smoothSolver:  Solving for Uy, Initial residual = 0.0222277, Final residual = 0.00157836, No Iterations 2
GAMG:  Solving for p, Initial residual = 0.0457176, Final residual = 0.0015694, No Iterations 2
time step continuity errors : sum local = 0.00535787, global = 0.000684872, cumulative = -0.0320421
smoothSolver:  Solving for omega, Initial residual = 0.00109443, Final residual = 4.44911e-05, No Iterations 3
[...]
smoothSolver:  Solving for k, Initial residual = 2.31692e-06, Final residual = 1.10502e-07, No Iterations 3
bounding k, min: -0.670797 max: 71.8941 average: 9.02086
ExecutionTime = 146.86 s  ClockTime = 147 s

Time = 1976

smoothSolver:  Solving for Ux, Initial residual = 9.08792e-07, Final residual = 6.25149e-08, No Iterations 5
smoothSolver:  Solving for Uy, Initial residual = 5.20534e-06, Final residual = 2.97506e-07, No Iterations 3
GAMG:  Solving for p, Initial residual = 6.16061e-05, Final residual = 4.66473e-06, No Iterations 1
time step continuity errors : sum local = 3.21399e-07, global = -4.03736e-08, cumulative = -0.0476534
smoothSolver:  Solving for omega, Initial residual = 3.19305e-07, Final residual = 1.21614e-08, No Iterations 2
smoothSolver:  Solving for k, Initial residual = 2.28841e-06, Final residual = 1.09689e-07, No Iterations 3
bounding k, min: -0.670965 max: 71.894 average: 9.02089
ExecutionTime = 146.93 s  ClockTime = 147 s

Time = 1977

smoothSolver:  Solving for Ux, Initial residual = 9.06089e-07, Final residual = 6.2145e-08, No Iterations 5
smoothSolver:  Solving for Uy, Initial residual = 5.17686e-06, Final residual = 2.95599e-07, No Iterations 3
GAMG:  Solving for p, Initial residual = 5.92785e-05, Final residual = 4.68849e-06, No Iterations 1
time step continuity errors : sum local = 3.23019e-07, global = -3.78843e-08, cumulative = -0.0476534
smoothSolver:  Solving for omega, Initial residual = 3.30924e-07, Final residual = 1.16927e-08, No Iterations 2
smoothSolver:  Solving for k, Initial residual = 2.30566e-06, Final residual = 1.0936e-07, No Iterations 3
bounding k, min: -0.670817 max: 71.8938 average: 9.02092
ExecutionTime = 147 s  ClockTime = 147 s

Time = 1978

smoothSolver:  Solving for Ux, Initial residual = 9.01737e-07, Final residual = 6.17841e-08, No Iterations 5
smoothSolver:  Solving for Uy, Initial residual = 5.14848e-06, Final residual = 2.93765e-07, No Iterations 3
GAMG:  Solving for p, Initial residual = 5.7068e-05, Final residual = 4.71944e-06, No Iterations 1
time step continuity errors : sum local = 3.25164e-07, global = -3.57379e-08, cumulative = -0.0476534
smoothSolver:  Solving for omega, Initial residual = 3.20506e-07, Final residual = 1.2069e-08, No Iterations 2
smoothSolver:  Solving for k, Initial residual = 2.29027e-06, Final residual = 1.0857e-07, No Iterations 3
bounding k, min: -0.670976 max: 71.8936 average: 9.02095
ExecutionTime = 147.06 s  ClockTime = 147 s

Time = 1979

smoothSolver:  Solving for Ux, Initial residual = 8.98611e-07, Final residual = 6.14219e-08, No Iterations 5
smoothSolver:  Solving for Uy, Initial residual = 5.12206e-06, Final residual = 2.91843e-07, No Iterations 3
GAMG:  Solving for p, Initial residual = 5.55073e-05, Final residual = 4.72694e-06, No Iterations 1
time step continuity errors : sum local = 3.25665e-07, global = -3.19671e-08, cumulative = -0.0476535
smoothSolver:  Solving for omega, Initial residual = 3.27553e-07, Final residual = 1.15198e-08, No Iterations 2
smoothSolver:  Solving for k, Initial residual = 2.2998e-06, Final residual = 1.08213e-07, No Iterations 3
bounding k, min: -0.670818 max: 71.8934 average: 9.02098
ExecutionTime = 147.13 s  ClockTime = 148 s

Time = 1980

smoothSolver:  Solving for Ux, Initial residual = 8.94547e-07, Final residual = 6.10712e-08, No Iterations 5
smoothSolver:  Solving for Uy, Initial residual = 5.09998e-06, Final residual = 2.90177e-07, No Iterations 3
GAMG:  Solving for p, Initial residual = 5.45066e-05, Final residual = 4.72792e-06, No Iterations 1
time step continuity errors : sum local = 3.25747e-07, global = -2.90787e-08, cumulative = -0.0476535
smoothSolver:  Solving for omega, Initial residual = 3.19758e-07, Final residual = 1.19443e-08, No Iterations 2
smoothSolver:  Solving for k, Initial residual = 2.28464e-06, Final residual = 1.07418e-07, No Iterations 3
bounding k, min: -0.670965 max: 71.8931 average: 9.02101
ExecutionTime = 147.19 s  ClockTime = 148 s

Time = 1981

smoothSolver:  Solving for Ux, Initial residual = 8.926e-07, Final residual = 6.07188e-08, No Iterations 5
smoothSolver:  Solving for Uy, Initial residual = 5.08088e-06, Final residual = 2.88367e-07, No Iterations 3
GAMG:  Solving for p, Initial residual = 5.41844e-05, Final residual = 4.70134e-06, No Iterations 1
time step continuity errors : sum local = 3.23901e-07, global = -2.53168e-08, cumulative = -0.0476535
smoothSolver:  Solving for omega, Initial residual = 3.34764e-07, Final residual = 1.15256e-08, No Iterations 2
smoothSolver:  Solving for k, Initial residual = 2.29527e-06, Final residual = 1.07028e-07, No Iterations 3
bounding k, min: -0.670794 max: 71.8928 average: 9.02104
ExecutionTime = 147.26 s  ClockTime = 148 s

Time = 1982

smoothSolver:  Solving for Ux, Initial residual = 8.89744e-07, Final residual = 6.03766e-08, No Iterations 5
smoothSolver:  Solving for Uy, Initial residual = 5.065e-06, Final residual = 2.86732e-07, No Iterations 3
GAMG:  Solving for p, Initial residual = 5.28037e-05, Final residual = 4.67174e-06, No Iterations 1
time step continuity errors : sum local = 3.21877e-07, global = -2.28645e-08, cumulative = -0.0476536
smoothSolver:  Solving for omega, Initial residual = 3.27781e-07, Final residual = 1.1967e-08, No Iterations 2
smoothSolver:  Solving for k, Initial residual = 2.25775e-06, Final residual = 1.06258e-07, No Iterations 3
bounding k, min: -0.670928 max: 71.8924 average: 9.02107
ExecutionTime = 147.33 s  ClockTime = 148 s

Time = 1983

smoothSolver:  Solving for Ux, Initial residual = 8.86407e-07, Final residual = 6.00332e-08, No Iterations 5
smoothSolver:  Solving for Uy, Initial residual = 5.05281e-06, Final residual = 2.85124e-07, No Iterations 3
GAMG:  Solving for p, Initial residual = 5.10423e-05, Final residual = 4.6203e-06, No Iterations 1
time step continuity errors : sum local = 3.1832e-07, global = -2.00763e-08, cumulative = -0.0476536
smoothSolver:  Solving for omega, Initial residual = 3.39336e-07, Final residual = 1.14417e-08, No Iterations 2
smoothSolver:  Solving for k, Initial residual = 2.24489e-06, Final residual = 1.05817e-07, No Iterations 3
bounding k, min: -0.670746 max: 71.8921 average: 9.02109
ExecutionTime = 147.4 s  ClockTime = 148 s

Time = 1984

smoothSolver:  Solving for Ux, Initial residual = 8.81742e-07, Final residual = 5.97005e-08, No Iterations 5
smoothSolver:  Solving for Uy, Initial residual = 5.03907e-06, Final residual = 2.83644e-07, No Iterations 3
GAMG:  Solving for p, Initial residual = 4.97597e-05, Final residual = 4.60135e-06, No Iterations 1
time step continuity errors : sum local = 3.17029e-07, global = -1.87291e-08, cumulative = -0.0476536
smoothSolver:  Solving for omega, Initial residual = 3.30718e-07, Final residual = 1.19078e-08, No Iterations 2
smoothSolver:  Solving for k, Initial residual = 2.2272e-06, Final residual = 1.05056e-07, No Iterations 3
bounding k, min: -0.670869 max: 71.8917 average: 9.02112
ExecutionTime = 147.47 s  ClockTime = 148 s

Time = 1985

smoothSolver:  Solving for Ux, Initial residual = 8.78846e-07, Final residual = 5.93689e-08, No Iterations 5
smoothSolver:  Solving for Uy, Initial residual = 5.02864e-06, Final residual = 2.8211e-07, No Iterations 3
GAMG:  Solving for p, Initial residual = 4.64131e-05, Final residual = 4.56003e-06, No Iterations 1
time step continuity errors : sum local = 3.1417e-07, global = -1.72062e-08, cumulative = -0.0476536
smoothSolver:  Solving for omega, Initial residual = 3.36506e-07, Final residual = 1.12938e-08, No Iterations 2
smoothSolver:  Solving for k, Initial residual = 2.24111e-06, Final residual = 1.04726e-07, No Iterations 3
bounding k, min: -0.670681 max: 71.8913 average: 9.02115
ExecutionTime = 147.54 s  ClockTime = 148 s

Time = 1986

smoothSolver:  Solving for Ux, Initial residual = 8.76579e-07, Final residual = 5.90397e-08, No Iterations 5
smoothSolver:  Solving for Uy, Initial residual = 5.02018e-06, Final residual = 2.80638e-07, No Iterations 3
GAMG:  Solving for p, Initial residual = 4.88294e-05, Final residual = 4.55954e-06, No Iterations 1
time step continuity errors : sum local = 3.14153e-07, global = -1.69974e-08, cumulative = -0.0476536
smoothSolver:  Solving for omega, Initial residual = 3.23001e-07, Final residual = 1.14855e-08, No Iterations 2
smoothSolver:  Solving for k, Initial residual = 2.22138e-06, Final residual = 1.03809e-07, No Iterations 3
bounding k, min: -0.6708 max: 71.8909 average: 9.02118
ExecutionTime = 147.6 s  ClockTime = 148 s

Time = 1987

smoothSolver:  Solving for Ux, Initial residual = 8.71563e-07, Final residual = 5.87108e-08, No Iterations 5
smoothSolver:  Solving for Uy, Initial residual = 5.13577e-06, Final residual = 2.82336e-07, No Iterations 3
GAMG:  Solving for p, Initial residual = 0.00128407, Final residual = 5.75044e-06, No Iterations 1
time step continuity errors : sum local = 3.96675e-07, global = -2.06595e-08, cumulative = -0.0476536
smoothSolver:  Solving for omega, Initial residual = 3.25917e-07, Final residual = 1.10156e-08, No Iterations 2
smoothSolver:  Solving for k, Initial residual = 2.19537e-06, Final residual = 1.03472e-07, No Iterations 3
bounding k, min: -0.670617 max: 71.8905 average: 9.02121
ExecutionTime = 147.68 s  ClockTime = 148 s

Time = 1988

smoothSolver:  Solving for Ux, Initial residual = 8.64708e-07, Final residual = 5.84084e-08, No Iterations 5
smoothSolver:  Solving for Uy, Initial residual = 5.11217e-06, Final residual = 2.80684e-07, No Iterations 3
GAMG:  Solving for p, Initial residual = 0.000883949, Final residual = 7.02263e-06, No Iterations 1
time step continuity errors : sum local = 4.85622e-07, global = -2.42327e-08, cumulative = -0.0476537
smoothSolver:  Solving for omega, Initial residual = 3.16376e-07, Final residual = 1.12725e-08, No Iterations 2
smoothSolver:  Solving for k, Initial residual = 2.15559e-06, Final residual = 1.02578e-07, No Iterations 3
bounding k, min: -0.670729 max: 71.8901 average: 9.02124
ExecutionTime = 147.74 s  ClockTime = 148 s

Time = 1989

smoothSolver:  Solving for Ux, Initial residual = 8.60371e-07, Final residual = 5.8089e-08, No Iterations 5
smoothSolver:  Solving for Uy, Initial residual = 5.00381e-06, Final residual = 2.76723e-07, No Iterations 3
GAMG:  Solving for p, Initial residual = 0.000344981, Final residual = 7.4584e-06, No Iterations 1
time step continuity errors : sum local = 5.15196e-07, global = -2.65521e-08, cumulative = -0.0476537
smoothSolver:  Solving for omega, Initial residual = 3.22245e-07, Final residual = 1.08679e-08, No Iterations 2
smoothSolver:  Solving for k, Initial residual = 2.16717e-06, Final residual = 1.02292e-07, No Iterations 3
bounding k, min: -0.670568 max: 71.8897 average: 9.02126
ExecutionTime = 147.81 s  ClockTime = 148 s

Time = 1990

smoothSolver:  Solving for Ux, Initial residual = 8.57129e-07, Final residual = 5.77567e-08, No Iterations 5
smoothSolver:  Solving for Uy, Initial residual = 4.96319e-06, Final residual = 2.74622e-07, No Iterations 3
GAMG:  Solving for p, Initial residual = 0.000261945, Final residual = 7.04002e-06, No Iterations 1
time step continuity errors : sum local = 4.8588e-07, global = -2.75677e-08, cumulative = -0.0476537
smoothSolver:  Solving for omega, Initial residual = 3.07662e-07, Final residual = 1.11327e-08, No Iterations 2
smoothSolver:  Solving for k, Initial residual = 2.15964e-06, Final residual = 1.01428e-07, No Iterations 3
bounding k, min: -0.670685 max: 71.8894 average: 9.02129
ExecutionTime = 147.88 s  ClockTime = 148 s

Time = 1991

smoothSolver:  Solving for Ux, Initial residual = 8.54304e-07, Final residual = 5.74449e-08, No Iterations 5
smoothSolver:  Solving for Uy, Initial residual = 4.94848e-06, Final residual = 2.73157e-07, No Iterations 3
GAMG:  Solving for p, Initial residual = 0.000199116, Final residual = 6.11444e-06, No Iterations 1
time step continuity errors : sum local = 4.21823e-07, global = -2.75072e-08, cumulative = -0.0476537
smoothSolver:  Solving for omega, Initial residual = 3.20313e-07, Final residual = 1.08138e-08, No Iterations 2
smoothSolver:  Solving for k, Initial residual = 2.14879e-06, Final residual = 1.01054e-07, No Iterations 3
bounding k, min: -0.670532 max: 71.8891 average: 9.02132
ExecutionTime = 147.95 s  ClockTime = 148 s

Time = 1992

smoothSolver:  Solving for Ux, Initial residual = 8.4943e-07, Final residual = 5.71473e-08, No Iterations 5
smoothSolver:  Solving for Uy, Initial residual = 4.92908e-06, Final residual = 2.71325e-07, No Iterations 3
GAMG:  Solving for p, Initial residual = 0.000155454, Final residual = 5.24973e-06, No Iterations 1
time step continuity errors : sum local = 3.6208e-07, global = -2.76604e-08, cumulative = -0.0476538
smoothSolver:  Solving for omega, Initial residual = 3.06724e-07, Final residual = 1.10825e-08, No Iterations 2
smoothSolver:  Solving for k, Initial residual = 2.12718e-06, Final residual = 1.00135e-07, No Iterations 3
bounding k, min: -0.670673 max: 71.8888 average: 9.02135
ExecutionTime = 148.01 s  ClockTime = 148 s

Time = 1993

smoothSolver:  Solving for Ux, Initial residual = 8.4693e-07, Final residual = 5.68635e-08, No Iterations 5
smoothSolver:  Solving for Uy, Initial residual = 4.90773e-06, Final residual = 2.69783e-07, No Iterations 3
GAMG:  Solving for p, Initial residual = 0.000124941, Final residual = 4.71393e-06, No Iterations 1
time step continuity errors : sum local = 3.25044e-07, global = -2.66104e-08, cumulative = -0.0476538
smoothSolver:  Solving for omega, Initial residual = 3.11411e-07, Final residual = 1.06335e-08, No Iterations 2
smoothSolver:  Solving for k, Initial residual = 2.13088e-06, Final residual = 9.97842e-08, No Iterations 3
bounding k, min: -0.670532 max: 71.8885 average: 9.02137
ExecutionTime = 148.08 s  ClockTime = 148 s

Time = 1994

smoothSolver:  Solving for Ux, Initial residual = 8.43624e-07, Final residual = 5.6553e-08, No Iterations 5
smoothSolver:  Solving for Uy, Initial residual = 4.88265e-06, Final residual = 2.67909e-07, No Iterations 3
GAMG:  Solving for p, Initial residual = 0.000106182, Final residual = 4.50926e-06, No Iterations 1
time step continuity errors : sum local = 3.10897e-07, global = -2.58851e-08, cumulative = -0.0476538
smoothSolver:  Solving for omega, Initial residual = 3.03143e-07, Final residual = 1.0936e-08, No Iterations 2
smoothSolver:  Solving for k, Initial residual = 2.09816e-06, Final residual = 9.89098e-08, No Iterations 3
bounding k, min: -0.670692 max: 71.8883 average: 9.0214
ExecutionTime = 148.15 s  ClockTime = 149 s

Time = 1995

smoothSolver:  Solving for Ux, Initial residual = 8.40343e-07, Final residual = 5.62381e-08, No Iterations 5
smoothSolver:  Solving for Uy, Initial residual = 4.8601e-06, Final residual = 2.6644e-07, No Iterations 3
GAMG:  Solving for p, Initial residual = 9.09043e-05, Final residual = 4.49667e-06, No Iterations 1
time step continuity errors : sum local = 3.0998e-07, global = -2.41857e-08, cumulative = -0.0476539
smoothSolver:  Solving for omega, Initial residual = 3.18483e-07, Final residual = 1.06579e-08, No Iterations 2
smoothSolver:  Solving for k, Initial residual = 2.09938e-06, Final residual = 9.85807e-08, No Iterations 3
bounding k, min: -0.670564 max: 71.8881 average: 9.02143
ExecutionTime = 148.21 s  ClockTime = 149 s

Time = 1996

smoothSolver:  Solving for Ux, Initial residual = 8.38051e-07, Final residual = 5.59031e-08, No Iterations 5
smoothSolver:  Solving for Uy, Initial residual = 4.83907e-06, Final residual = 2.64867e-07, No Iterations 3
GAMG:  Solving for p, Initial residual = 8.13273e-05, Final residual = 4.56456e-06, No Iterations 1
time step continuity errors : sum local = 3.14648e-07, global = -2.33493e-08, cumulative = -0.0476539
smoothSolver:  Solving for omega, Initial residual = 3.06589e-07, Final residual = 1.08828e-08, No Iterations 2
smoothSolver:  Solving for k, Initial residual = 2.08572e-06, Final residual = 9.76755e-08, No Iterations 3
bounding k, min: -0.67074 max: 71.888 average: 9.02145
ExecutionTime = 148.27 s  ClockTime = 149 s

Time = 1997

smoothSolver:  Solving for Ux, Initial residual = 8.35297e-07, Final residual = 5.55824e-08, No Iterations 5
smoothSolver:  Solving for Uy, Initial residual = 4.82076e-06, Final residual = 2.63628e-07, No Iterations 3
GAMG:  Solving for p, Initial residual = 7.44744e-05, Final residual = 4.59843e-06, No Iterations 1
time step continuity errors : sum local = 3.16948e-07, global = -2.17737e-08, cumulative = -0.0476539
smoothSolver:  Solving for omega, Initial residual = 3.14977e-07, Final residual = 1.05552e-08, No Iterations 2
smoothSolver:  Solving for k, Initial residual = 2.09094e-06, Final residual = 9.73897e-08, No Iterations 3
bounding k, min: -0.670619 max: 71.8879 average: 9.02148
ExecutionTime = 148.34 s  ClockTime = 149 s

Time = 1998

smoothSolver:  Solving for Ux, Initial residual = 8.33951e-07, Final residual = 5.5262e-08, No Iterations 5
smoothSolver:  Solving for Uy, Initial residual = 4.80093e-06, Final residual = 2.6212e-07, No Iterations 3
GAMG:  Solving for p, Initial residual = 6.93846e-05, Final residual = 4.63584e-06, No Iterations 1
time step continuity errors : sum local = 3.19526e-07, global = -2.1089e-08, cumulative = -0.0476539
smoothSolver:  Solving for omega, Initial residual = 3.05417e-07, Final residual = 1.07213e-08, No Iterations 2
smoothSolver:  Solving for k, Initial residual = 2.07456e-06, Final residual = 9.64518e-08, No Iterations 3
bounding k, min: -0.670804 max: 71.8879 average: 9.02151
ExecutionTime = 148.4 s  ClockTime = 149 s

Time = 1999

smoothSolver:  Solving for Ux, Initial residual = 8.30454e-07, Final residual = 5.49635e-08, No Iterations 5
smoothSolver:  Solving for Uy, Initial residual = 4.78594e-06, Final residual = 2.60713e-07, No Iterations 3
GAMG:  Solving for p, Initial residual = 6.46169e-05, Final residual = 4.61952e-06, No Iterations 1
time step continuity errors : sum local = 3.18376e-07, global = -1.96194e-08, cumulative = -0.0476539
smoothSolver:  Solving for omega, Initial residual = 3.16343e-07, Final residual = 1.05184e-08, No Iterations 2
smoothSolver:  Solving for k, Initial residual = 2.06218e-06, Final residual = 9.61217e-08, No Iterations 3
bounding k, min: -0.670685 max: 71.8878 average: 9.02153
ExecutionTime = 148.47 s  ClockTime = 149 s

Time = 2000

smoothSolver:  Solving for Ux, Initial residual = 8.26725e-07, Final residual = 5.46675e-08, No Iterations 5
smoothSolver:  Solving for Uy, Initial residual = 4.76518e-06, Final residual = 2.58848e-07, No Iterations 3
GAMG:  Solving for p, Initial residual = 6.1517e-05, Final residual = 4.61741e-06, No Iterations 1
time step continuity errors : sum local = 3.18236e-07, global = -1.90049e-08, cumulative = -0.047654
smoothSolver:  Solving for omega, Initial residual = 3.06381e-07, Final residual = 1.06462e-08, No Iterations 2
smoothSolver:  Solving for k, Initial residual = 2.02146e-06, Final residual = 9.52181e-08, No Iterations 3
bounding k, min: -0.67087 max: 71.8879 average: 9.02156
ExecutionTime = 148.66 s  ClockTime = 149 s

    functionObjects::turbulenceFields stressComponents writing field: turbulenceProperties:devReff

    functionObjects::pressure pressureCoefficient writing field: cp
--> FOAM Warning : 
    From Foam::IOobjectList Foam::sampledSets::preCheckFields(unsigned int)
    in file sampledSet/sampledSets/sampledSets.C at line 216
    
Cannot find registered field matching 1(U.mag)
writeCellCentres writeCellCentres write:
    writing cell-centres field C to 2000
    Writing the x component field of the cell-centres Cx to 2000
    Writing the y component field of the cell-centres Cy to 2000
    Writing the z component field of the cell-centres Cz to 2000
wallShearStress wallShearStress write:
    writing field wallShearStress
    min/max(upperWall) = (-1.97359 -2.74985e-05 -1.27176e-21), (-1.15258 0.00031963 1.31221e-21)
    min/max(lowerWall) = (-2.79411 -0.513008 -1.13903e-19), (0.591308 0.0419828 1.14009e-19)
End

