/*---------------------------------------------------------------------------*\
| =========                 |                                                 |
| \\      /  F ield         | OpenFOAM: The Open Source CFD Toolbox           |
|  \\    /   O peration     | Version:  2506                                  |
|   \\  /    A nd           | Website:  www.openfoam.com                      |
|    \\/     M anipulation  |                                                 |
\*---------------------------------------------------------------------------*/
Build  : _615aae61-20250627 OPENFOAM=2506 version=v2506
Arch   : "LSB;label=32;scalar=64"
Exec   : simpleFoam
Date   : Oct 23 2025
Time   : 19:22:46
Host   : DESKTOP-S27TKU1
PID    : 292900
I/O    : uncollated
Case   : /home/durai/OpenFOAM/durai-v2506/run/dev-space/backwardFacingStep2D
nProcs : 1
trapFpe: Floating point exception trapping enabled (FOAM_SIGFPE).
fileModificationChecking : Monitoring run-time modified files using timeStampMaster (fileModificationSkew 5, maxFileModificationPolls 20)
allowSystemOperations : Allowing user-supplied system call operations

// * * * * * * * * * * * * * * * * * * * * * * * * * * * * * * * * * * * * * //
Create time

Create mesh for time = 0


SIMPLE: convergence criteria
    field p	 tolerance 0.0001
    field U	 tolerance 1e-06
    field "(k|epsilon|omega|f|v2)"	 tolerance 1e-05

Reading field p

Reading field U

Reading/calculating face flux field phi

Selecting incompressible transport model Newtonian
Selecting turbulence model type RAS
Selecting RAS turbulence model kOmegaSST
Selecting patchDistMethod meshWave
RAS
{
    RASModel        kOmegaSST;
    turbulence      on;
    printCoeffs     on;
    alphaK1         0.85;
    alphaK2         1;
    alphaOmega1     0.5;
    alphaOmega2     0.856;
    gamma1          0.555556;
    gamma2          0.44;
    beta1           0.075;
    beta2           0.0828;
    betaStar        0.09;
    a1              0.31;
    b1              1;
    c1              10;
    F3              false;
    decayControl    false;
    kInf            0;
    omegaInf        0;
}

No MRF models present

No finite volume options present

Starting time loop

turbulenceFields stressComponents: storing fields:
    turbulenceProperties:devReff

pressure pressureCoefficient:
    Operating mode: staticCoeff
    Not including hydrostatic effects

Sampled set:
    Uref -> csv
    x_by_h_01 -> csv
    x_by_h_04 -> csv
    x_by_h_06 -> csv
    x_by_h_10 -> csv

wallShearStress wallShearStress:
    processing all (2) wall patches

Time = 1

smoothSolver:  Solving for Ux, Initial residual = 1, Final residual = 0.00301239, No Iterations 1
smoothSolver:  Solving for Uy, Initial residual = 1, Final residual = 0.0846411, No Iterations 2
GAMG:  Solving for p, Initial residual = 1, Final residual = 0.0984971, No Iterations 62
time step continuity errors : sum local = 0.0233749, global = -0.00381168, cumulative = -0.00381168
smoothSolver:  Solving for omega, Initial residual = 0.974397, Final residual = 0.00043298, No Iterations 1
smoothSolver:  Solving for k, Initial residual = 1, Final residual = 0.00628888, No Iterations 1
ExecutionTime = 18.33 s  ClockTime = 19 s

Time = 2

smoothSolver:  Solving for Ux, Initial residual = 0.000980295, Final residual = 4.80912e-05, No Iterations 2
smoothSolver:  Solving for Uy, Initial residual = 0.00686415, Final residual = 0.000404801, No Iterations 2
GAMG:  Solving for p, Initial residual = 0.820977, Final residual = 0.0697737, No Iterations 24
time step continuity errors : sum local = 0.0538216, global = 0.00141684, cumulative = -0.00239484
smoothSolver:  Solving for omega, Initial residual = 0.744976, Final residual = 0.00458184, No Iterations 1
smoothSolver:  Solving for k, Initial residual = 0.679282, Final residual = 0.0211764, No Iterations 1
ExecutionTime = 22.78 s  ClockTime = 23 s

Time = 3

smoothSolver:  Solving for Ux, Initial residual = 0.0102305, Final residual = 0.000633122, No Iterations 2
smoothSolver:  Solving for Uy, Initial residual = 0.294493, Final residual = 0.0155283, No Iterations 2
GAMG:  Solving for p, Initial residual = 0.551947, Final residual = 0.0525427, No Iterations 7
time step continuity errors : sum local = 0.0682239, global = 0.0109489, cumulative = 0.00855411
smoothSolver:  Solving for omega, Initial residual = 0.201556, Final residual = 0.00694679, No Iterations 1
smoothSolver:  Solving for k, Initial residual = 0.257312, Final residual = 0.020644, No Iterations 1
ExecutionTime = 25.21 s  ClockTime = 26 s

Time = 4

smoothSolver:  Solving for Ux, Initial residual = 0.00502495, Final residual = 0.000309271, No Iterations 2
smoothSolver:  Solving for Uy, Initial residual = 0.137857, Final residual = 0.00925267, No Iterations 2
GAMG:  Solving for p, Initial residual = 0.451535, Final residual = 0.0447452, No Iterations 11
time step continuity errors : sum local = 0.0506627, global = -0.00860633, cumulative = -5.222e-05
smoothSolver:  Solving for omega, Initial residual = 0.0434536, Final residual = 0.00369677, No Iterations 1
bounding omega, min: -23406.3 max: 3.90824e+06 average: 8693.36
smoothSolver:  Solving for k, Initial residual = 0.153008, Final residual = 0.013177, No Iterations 1
bounding k, min: -2.36191e-05 max: 0.113111 average: 0.000150796
ExecutionTime = 28.1 s  ClockTime = 28 s

Time = 5

smoothSolver:  Solving for Ux, Initial residual = 0.0034127, Final residual = 0.000214787, No Iterations 2
smoothSolver:  Solving for Uy, Initial residual = 0.0435301, Final residual = 0.00260673, No Iterations 2
GAMG:  Solving for p, Initial residual = 0.336356, Final residual = 0.0326343, No Iterations 8
time step continuity errors : sum local = 0.0385639, global = -0.00664929, cumulative = -0.00670151
smoothSolver:  Solving for omega, Initial residual = 0.0225479, Final residual = 0.000374082, No Iterations 2
smoothSolver:  Solving for k, Initial residual = 0.0837546, Final residual = 0.00629238, No Iterations 1
bounding k, min: -0.00153549 max: 0.879308 average: 0.000193301
ExecutionTime = 30.71 s  ClockTime = 31 s

Time = 6

smoothSolver:  Solving for Ux, Initial residual = 0.00258892, Final residual = 0.000169782, No Iterations 2
smoothSolver:  Solving for Uy, Initial residual = 0.0332871, Final residual = 0.00204075, No Iterations 2
GAMG:  Solving for p, Initial residual = 0.260508, Final residual = 0.0258791, No Iterations 18
time step continuity errors : sum local = 0.0181229, global = -0.0033213, cumulative = -0.0100228
smoothSolver:  Solving for omega, Initial residual = 0.0120119, Final residual = 0.000272504, No Iterations 2
bounding omega, min: -28128.4 max: 3.2112e+06 average: 7707.86
smoothSolver:  Solving for k, Initial residual = 0.0682228, Final residual = 0.00353271, No Iterations 1
bounding k, min: -1.03968e-05 max: 6.90319 average: 0.000260973
ExecutionTime = 34.41 s  ClockTime = 35 s

Time = 7

smoothSolver:  Solving for Ux, Initial residual = 0.0033047, Final residual = 0.000197469, No Iterations 2
smoothSolver:  Solving for Uy, Initial residual = 0.0602578, Final residual = 0.00388579, No Iterations 2
GAMG:  Solving for p, Initial residual = 0.180943, Final residual = 0.0180374, No Iterations 19
time step continuity errors : sum local = 0.0131657, global = -0.000431094, cumulative = -0.0104539
smoothSolver:  Solving for omega, Initial residual = 0.00592083, Final residual = 0.000147089, No Iterations 2
bounding omega, min: -3584.63 max: 5.24195e+06 average: 7451.94
smoothSolver:  Solving for k, Initial residual = 0.0688585, Final residual = 0.00221447, No Iterations 1
bounding k, min: -0.000697447 max: 34.8021 average: 0.000429779
ExecutionTime = 38.2 s  ClockTime = 39 s

Time = 8

smoothSolver:  Solving for Ux, Initial residual = 0.003532, Final residual = 0.000217599, No Iterations 2
smoothSolver:  Solving for Uy, Initial residual = 0.0461477, Final residual = 0.00286472, No Iterations 2
GAMG:  Solving for p, Initial residual = 0.0768522, Final residual = 0.00676317, No Iterations 11
time step continuity errors : sum local = 0.0108113, global = -5.06289e-05, cumulative = -0.0105045
smoothSolver:  Solving for omega, Initial residual = 0.00733439, Final residual = 0.000184051, No Iterations 2
bounding omega, min: -1921.97 max: 3.32288e+06 average: 7249.51
smoothSolver:  Solving for k, Initial residual = 0.055791, Final residual = 0.00136562, No Iterations 1
bounding k, min: -4.01773e-05 max: 120.118 average: 0.000683709
ExecutionTime = 41.08 s  ClockTime = 41 s

Time = 9

smoothSolver:  Solving for Ux, Initial residual = 0.00302433, Final residual = 0.000199986, No Iterations 2
smoothSolver:  Solving for Uy, Initial residual = 0.0136467, Final residual = 0.000803671, No Iterations 2
GAMG:  Solving for p, Initial residual = 0.0437492, Final residual = 0.00423337, No Iterations 8
time step continuity errors : sum local = 0.00851734, global = -0.000211855, cumulative = -0.0107164
smoothSolver:  Solving for omega, Initial residual = 0.00461523, Final residual = 0.000117682, No Iterations 2
bounding omega, min: -271.467 max: 3.00498e+06 average: 7124.85
smoothSolver:  Solving for k, Initial residual = 0.0351125, Final residual = 0.001055, No Iterations 1
bounding k, min: -0.000925462 max: 134.3 average: 0.00100275
ExecutionTime = 43.62 s  ClockTime = 44 s

Time = 10

smoothSolver:  Solving for Ux, Initial residual = 0.00283238, Final residual = 0.000185285, No Iterations 2
smoothSolver:  Solving for Uy, Initial residual = 0.0127808, Final residual = 0.000722642, No Iterations 2
GAMG:  Solving for p, Initial residual = 0.035635, Final residual = 0.00328274, No Iterations 16
time step continuity errors : sum local = 0.00651105, global = 0.000144311, cumulative = -0.0105721
smoothSolver:  Solving for omega, Initial residual = 0.00314177, Final residual = 8.38225e-05, No Iterations 2
bounding omega, min: -21.2231 max: 1.66623e+06 average: 7021.78
smoothSolver:  Solving for k, Initial residual = 0.0320193, Final residual = 0.00100618, No Iterations 1
bounding k, min: -0.00245021 max: 108.568 average: 0.0014743
ExecutionTime = 47.05 s  ClockTime = 47 s

Time = 11

smoothSolver:  Solving for Ux, Initial residual = 0.00263119, Final residual = 0.000167079, No Iterations 2
smoothSolver:  Solving for Uy, Initial residual = 0.0138742, Final residual = 0.000760412, No Iterations 2
GAMG:  Solving for p, Initial residual = 0.0543728, Final residual = 0.00508002, No Iterations 5
time step continuity errors : sum local = 0.0059438, global = -0.000130215, cumulative = -0.0107023
smoothSolver:  Solving for omega, Initial residual = 0.0035755, Final residual = 9.68474e-05, No Iterations 2
smoothSolver:  Solving for k, Initial residual = 0.0284204, Final residual = 0.00103751, No Iterations 1
bounding k, min: -0.000259133 max: 90.7969 average: 0.0022319
ExecutionTime = 49.28 s  ClockTime = 50 s

Time = 12

smoothSolver:  Solving for Ux, Initial residual = 0.00246186, Final residual = 0.000157882, No Iterations 2
smoothSolver:  Solving for Uy, Initial residual = 0.0133568, Final residual = 0.000747052, No Iterations 2
GAMG:  Solving for p, Initial residual = 0.0532791, Final residual = 0.00416311, No Iterations 9
time step continuity errors : sum local = 0.00478288, global = -6.64778e-05, cumulative = -0.0107688
smoothSolver:  Solving for omega, Initial residual = 0.00225512, Final residual = 6.00811e-05, No Iterations 2
smoothSolver:  Solving for k, Initial residual = 0.0257589, Final residual = 0.00108845, No Iterations 1
bounding k, min: -0.000318975 max: 84.9284 average: 0.0034394
ExecutionTime = 51.98 s  ClockTime = 52 s

Time = 13

smoothSolver:  Solving for Ux, Initial residual = 0.0024784, Final residual = 0.000159231, No Iterations 2
smoothSolver:  Solving for Uy, Initial residual = 0.0138343, Final residual = 0.000765854, No Iterations 2
GAMG:  Solving for p, Initial residual = 0.0515999, Final residual = 0.00473957, No Iterations 3
time step continuity errors : sum local = 0.00575441, global = -0.000293621, cumulative = -0.0110624
smoothSolver:  Solving for omega, Initial residual = 0.00210382, Final residual = 5.61167e-05, No Iterations 2
smoothSolver:  Solving for k, Initial residual = 0.0255187, Final residual = 0.00114668, No Iterations 1
bounding k, min: -0.00335742 max: 87.9446 average: 0.00538368
ExecutionTime = 54 s  ClockTime = 54 s

Time = 14

smoothSolver:  Solving for Ux, Initial residual = 0.00255412, Final residual = 0.000163004, No Iterations 2
smoothSolver:  Solving for Uy, Initial residual = 0.0136752, Final residual = 0.000759899, No Iterations 2
GAMG:  Solving for p, Initial residual = 0.0907934, Final residual = 0.00803823, No Iterations 1
time step continuity errors : sum local = 0.00998442, global = -0.00019948, cumulative = -0.0112619
smoothSolver:  Solving for omega, Initial residual = 0.00185693, Final residual = 4.96679e-05, No Iterations 2
smoothSolver:  Solving for k, Initial residual = 0.0256317, Final residual = 0.00120364, No Iterations 1
bounding k, min: -0.00840669 max: 92.7122 average: 0.0085503
ExecutionTime = 55.76 s  ClockTime = 56 s

Time = 15

smoothSolver:  Solving for Ux, Initial residual = 0.00265931, Final residual = 0.000169889, No Iterations 2
smoothSolver:  Solving for Uy, Initial residual = 0.0136907, Final residual = 0.000769304, No Iterations 2
GAMG:  Solving for p, Initial residual = 0.07683, Final residual = 0.00714025, No Iterations 3
time step continuity errors : sum local = 0.00835967, global = -0.000578779, cumulative = -0.0118407
smoothSolver:  Solving for omega, Initial residual = 0.00205782, Final residual = 5.20335e-05, No Iterations 2
smoothSolver:  Solving for k, Initial residual = 0.0265112, Final residual = 0.00125235, No Iterations 1
bounding k, min: -0.0622864 max: 93.861 average: 0.0136038
ExecutionTime = 57.78 s  ClockTime = 58 s

Time = 16

smoothSolver:  Solving for Ux, Initial residual = 0.00272271, Final residual = 0.000175744, No Iterations 2
smoothSolver:  Solving for Uy, Initial residual = 0.0138102, Final residual = 0.000765379, No Iterations 2
GAMG:  Solving for p, Initial residual = 0.092175, Final residual = 0.00883556, No Iterations 2
time step continuity errors : sum local = 0.011277, global = 0.000266494, cumulative = -0.0115742
smoothSolver:  Solving for omega, Initial residual = 0.00170706, Final residual = 4.1937e-05, No Iterations 2
smoothSolver:  Solving for k, Initial residual = 0.027229, Final residual = 0.00137928, No Iterations 1
bounding k, min: -0.15599 max: 92.9382 average: 0.021556
ExecutionTime = 59.6 s  ClockTime = 60 s

Time = 17

smoothSolver:  Solving for Ux, Initial residual = 0.00287737, Final residual = 0.000181011, No Iterations 2
smoothSolver:  Solving for Uy, Initial residual = 0.013251, Final residual = 0.000727243, No Iterations 2
GAMG:  Solving for p, Initial residual = 0.132281, Final residual = 0.00852234, No Iterations 1
time step continuity errors : sum local = 0.0137175, global = 0.000563466, cumulative = -0.0110107
smoothSolver:  Solving for omega, Initial residual = 0.00167363, Final residual = 4.12773e-05, No Iterations 2
smoothSolver:  Solving for k, Initial residual = 0.0279967, Final residual = 0.00155236, No Iterations 1
bounding k, min: -0.0418242 max: 99.3481 average: 0.0338345
ExecutionTime = 61.36 s  ClockTime = 62 s

Time = 18

smoothSolver:  Solving for Ux, Initial residual = 0.00295318, Final residual = 0.000182172, No Iterations 2
smoothSolver:  Solving for Uy, Initial residual = 0.0132199, Final residual = 0.0007333, No Iterations 2
GAMG:  Solving for p, Initial residual = 0.0926144, Final residual = 0.0077736, No Iterations 2
time step continuity errors : sum local = 0.0115884, global = -0.000508185, cumulative = -0.0115189
smoothSolver:  Solving for omega, Initial residual = 0.00160004, Final residual = 3.94152e-05, No Iterations 2
smoothSolver:  Solving for k, Initial residual = 0.0292201, Final residual = 0.00181618, No Iterations 1
bounding k, min: -0.00742698 max: 110.195 average: 0.0521776
ExecutionTime = 63.25 s  ClockTime = 64 s

Time = 19

smoothSolver:  Solving for Ux, Initial residual = 0.00297885, Final residual = 0.000183562, No Iterations 2
smoothSolver:  Solving for Uy, Initial residual = 0.0130332, Final residual = 0.00076078, No Iterations 2
GAMG:  Solving for p, Initial residual = 0.0862256, Final residual = 0.00606078, No Iterations 5
time step continuity errors : sum local = 0.00868988, global = -0.000109077, cumulative = -0.011628
smoothSolver:  Solving for omega, Initial residual = 0.00161613, Final residual = 3.93407e-05, No Iterations 2
bounding omega, min: -13.4062 max: 1.55794e+06 average: 6662.87
smoothSolver:  Solving for k, Initial residual = 0.0304058, Final residual = 0.00225942, No Iterations 1
bounding k, min: -0.0458239 max: 107.868 average: 0.0786151
ExecutionTime = 65.4 s  ClockTime = 66 s

Time = 20

smoothSolver:  Solving for Ux, Initial residual = 0.00305182, Final residual = 0.000188167, No Iterations 2
smoothSolver:  Solving for Uy, Initial residual = 0.0123175, Final residual = 0.000707426, No Iterations 2
GAMG:  Solving for p, Initial residual = 0.128391, Final residual = 0.00789841, No Iterations 1
time step continuity errors : sum local = 0.012761, global = 0.00122503, cumulative = -0.0104029
smoothSolver:  Solving for omega, Initial residual = 0.00122594, Final residual = 2.98657e-05, No Iterations 2
smoothSolver:  Solving for k, Initial residual = 0.0320028, Final residual = 0.00291851, No Iterations 1
bounding k, min: -0.0705669 max: 100.262 average: 0.115319
ExecutionTime = 67.18 s  ClockTime = 68 s

Time = 21

smoothSolver:  Solving for Ux, Initial residual = 0.00317999, Final residual = 0.000189173, No Iterations 2
smoothSolver:  Solving for Uy, Initial residual = 0.0120433, Final residual = 0.000655044, No Iterations 2
GAMG:  Solving for p, Initial residual = 0.110322, Final residual = 0.00689936, No Iterations 2
time step continuity errors : sum local = 0.0104964, global = -0.000201606, cumulative = -0.0106045
smoothSolver:  Solving for omega, Initial residual = 0.00144576, Final residual = 3.30796e-05, No Iterations 2
smoothSolver:  Solving for k, Initial residual = 0.0339192, Final residual = 0.000592255, No Iterations 2
bounding k, min: -0.683258 max: 90.7674 average: 0.169754
ExecutionTime = 69.02 s  ClockTime = 69 s

Time = 22

smoothSolver:  Solving for Ux, Initial residual = 0.00322601, Final residual = 0.000191483, No Iterations 2
smoothSolver:  Solving for Uy, Initial residual = 0.0136606, Final residual = 0.000786958, No Iterations 2
GAMG:  Solving for p, Initial residual = 0.100825, Final residual = 0.00988974, No Iterations 1
time step continuity errors : sum local = 0.0144871, global = 7.215e-05, cumulative = -0.0105324
smoothSolver:  Solving for omega, Initial residual = 0.00151485, Final residual = 3.4388e-05, No Iterations 2
smoothSolver:  Solving for k, Initial residual = 0.0330148, Final residual = 0.000846476, No Iterations 2
bounding k, min: -0.880553 max: 88.0906 average: 0.24214
ExecutionTime = 70.76 s  ClockTime = 71 s

Time = 23

smoothSolver:  Solving for Ux, Initial residual = 0.00317207, Final residual = 0.000193142, No Iterations 2
smoothSolver:  Solving for Uy, Initial residual = 0.0142606, Final residual = 0.00084324, No Iterations 2
GAMG:  Solving for p, Initial residual = 0.0959562, Final residual = 0.00772947, No Iterations 3
time step continuity errors : sum local = 0.0107525, global = 0.000535383, cumulative = -0.00999699
smoothSolver:  Solving for omega, Initial residual = 0.00131316, Final residual = 2.87079e-05, No Iterations 2
bounding omega, min: -6089.08 max: 1.35225e+06 average: 6633.6
smoothSolver:  Solving for k, Initial residual = 0.0335824, Final residual = 0.00123789, No Iterations 2
bounding k, min: -0.855967 max: 97.9118 average: 0.334222
ExecutionTime = 72.81 s  ClockTime = 73 s

Time = 24

smoothSolver:  Solving for Ux, Initial residual = 0.00322395, Final residual = 0.000194901, No Iterations 2
smoothSolver:  Solving for Uy, Initial residual = 0.01518, Final residual = 0.00083215, No Iterations 2
GAMG:  Solving for p, Initial residual = 0.185919, Final residual = 0.00883313, No Iterations 1
time step continuity errors : sum local = 0.0167944, global = -1.28734e-05, cumulative = -0.0100099
smoothSolver:  Solving for omega, Initial residual = 0.00134439, Final residual = 2.90362e-05, No Iterations 2
smoothSolver:  Solving for k, Initial residual = 0.0347156, Final residual = 0.00171625, No Iterations 2
bounding k, min: -1.41111 max: 111.276 average: 0.447264
ExecutionTime = 74.52 s  ClockTime = 75 s

Time = 25

smoothSolver:  Solving for Ux, Initial residual = 0.00326734, Final residual = 0.000198755, No Iterations 2
smoothSolver:  Solving for Uy, Initial residual = 0.0149271, Final residual = 0.000806798, No Iterations 2
GAMG:  Solving for p, Initial residual = 0.134338, Final residual = 0.0134309, No Iterations 1
time step continuity errors : sum local = 0.0205631, global = 0.00032128, cumulative = -0.00968859
smoothSolver:  Solving for omega, Initial residual = 0.00137195, Final residual = 2.92951e-05, No Iterations 2
smoothSolver:  Solving for k, Initial residual = 0.034981, Final residual = 0.00213708, No Iterations 2
bounding k, min: -1.46634 max: 121.475 average: 0.582207
ExecutionTime = 76.23 s  ClockTime = 77 s

Time = 26

smoothSolver:  Solving for Ux, Initial residual = 0.00326979, Final residual = 0.000205507, No Iterations 2
smoothSolver:  Solving for Uy, Initial residual = 0.0151433, Final residual = 0.000807727, No Iterations 2
GAMG:  Solving for p, Initial residual = 0.132848, Final residual = 0.0114536, No Iterations 2
time step continuity errors : sum local = 0.0173125, global = -0.00118342, cumulative = -0.010872
smoothSolver:  Solving for omega, Initial residual = 0.00151425, Final residual = 3.28885e-05, No Iterations 2
smoothSolver:  Solving for k, Initial residual = 0.0346981, Final residual = 0.00246841, No Iterations 2
bounding k, min: -1.21434 max: 118.567 average: 0.739709
ExecutionTime = 78.06 s  ClockTime = 78 s

Time = 27

smoothSolver:  Solving for Ux, Initial residual = 0.0032976, Final residual = 0.000206465, No Iterations 2
smoothSolver:  Solving for Uy, Initial residual = 0.0152368, Final residual = 0.000741203, No Iterations 2
GAMG:  Solving for p, Initial residual = 0.151902, Final residual = 0.0131197, No Iterations 1
time step continuity errors : sum local = 0.0218942, global = -0.00176837, cumulative = -0.0126404
smoothSolver:  Solving for omega, Initial residual = 0.0013714, Final residual = 3.11691e-05, No Iterations 2
smoothSolver:  Solving for k, Initial residual = 0.0347024, Final residual = 0.0026745, No Iterations 2
bounding k, min: -0.225891 max: 135.264 average: 0.920237
ExecutionTime = 79.83 s  ClockTime = 80 s

Time = 28

smoothSolver:  Solving for Ux, Initial residual = 0.00334648, Final residual = 0.000211092, No Iterations 2
smoothSolver:  Solving for Uy, Initial residual = 0.0151745, Final residual = 0.000726601, No Iterations 2
GAMG:  Solving for p, Initial residual = 0.155307, Final residual = 0.0147699, No Iterations 1
time step continuity errors : sum local = 0.0253147, global = -0.00136317, cumulative = -0.0140035
smoothSolver:  Solving for omega, Initial residual = 0.00146391, Final residual = 3.36915e-05, No Iterations 2
smoothSolver:  Solving for k, Initial residual = 0.0347617, Final residual = 0.00279812, No Iterations 2
bounding k, min: -0.874303 max: 165.244 average: 1.12419
ExecutionTime = 81.68 s  ClockTime = 82 s

Time = 29

smoothSolver:  Solving for Ux, Initial residual = 0.00336058, Final residual = 0.000213848, No Iterations 2
smoothSolver:  Solving for Uy, Initial residual = 0.0150101, Final residual = 0.000712775, No Iterations 2
GAMG:  Solving for p, Initial residual = 0.131449, Final residual = 0.00891715, No Iterations 3
time step continuity errors : sum local = 0.0145819, global = -0.00113696, cumulative = -0.0151405
smoothSolver:  Solving for omega, Initial residual = 0.00116284, Final residual = 2.77906e-05, No Iterations 2
smoothSolver:  Solving for k, Initial residual = 0.0352379, Final residual = 0.00283605, No Iterations 2
bounding k, min: -1.52292 max: 167.174 average: 1.35133
ExecutionTime = 83.68 s  ClockTime = 84 s

Time = 30

smoothSolver:  Solving for Ux, Initial residual = 0.00356529, Final residual = 0.00022057, No Iterations 2
smoothSolver:  Solving for Uy, Initial residual = 0.0182103, Final residual = 0.000795295, No Iterations 2
GAMG:  Solving for p, Initial residual = 0.142633, Final residual = 0.0115673, No Iterations 1
time step continuity errors : sum local = 0.021138, global = -0.000663617, cumulative = -0.0158041
smoothSolver:  Solving for omega, Initial residual = 0.00137691, Final residual = 3.47525e-05, No Iterations 2
smoothSolver:  Solving for k, Initial residual = 0.0361101, Final residual = 0.00281877, No Iterations 2
bounding k, min: -0.049016 max: 197.577 average: 1.60142
ExecutionTime = 85.53 s  ClockTime = 86 s

Time = 31

smoothSolver:  Solving for Ux, Initial residual = 0.00360548, Final residual = 0.000225679, No Iterations 2
smoothSolver:  Solving for Uy, Initial residual = 0.0178766, Final residual = 0.000803129, No Iterations 2
GAMG:  Solving for p, Initial residual = 0.118537, Final residual = 0.0111014, No Iterations 2
time step continuity errors : sum local = 0.0180997, global = -0.000896089, cumulative = -0.0167002
smoothSolver:  Solving for omega, Initial residual = 0.00124169, Final residual = 3.28081e-05, No Iterations 2
smoothSolver:  Solving for k, Initial residual = 0.0373073, Final residual = 0.00277537, No Iterations 2
bounding k, min: -0.756777 max: 289.228 average: 1.87363
ExecutionTime = 87.45 s  ClockTime = 88 s

Time = 32

smoothSolver:  Solving for Ux, Initial residual = 0.00368683, Final residual = 0.000231279, No Iterations 2
smoothSolver:  Solving for Uy, Initial residual = 0.0156404, Final residual = 0.000735831, No Iterations 2
GAMG:  Solving for p, Initial residual = 0.144279, Final residual = 0.0131138, No Iterations 1
time step continuity errors : sum local = 0.0234303, global = -0.000937549, cumulative = -0.0176378
smoothSolver:  Solving for omega, Initial residual = 0.00140017, Final residual = 3.79053e-05, No Iterations 2
smoothSolver:  Solving for k, Initial residual = 0.0390659, Final residual = 0.00272081, No Iterations 2
bounding k, min: -0.197806 max: 427.295 average: 2.16707
ExecutionTime = 89.27 s  ClockTime = 90 s

Time = 33

smoothSolver:  Solving for Ux, Initial residual = 0.00372672, Final residual = 0.000234902, No Iterations 2
smoothSolver:  Solving for Uy, Initial residual = 0.0154698, Final residual = 0.000741387, No Iterations 2
GAMG:  Solving for p, Initial residual = 0.117926, Final residual = 0.0108676, No Iterations 2
time step continuity errors : sum local = 0.0181905, global = 0.000506695, cumulative = -0.0171311
smoothSolver:  Solving for omega, Initial residual = 0.00141293, Final residual = 3.83711e-05, No Iterations 2
bounding omega, min: -49.2037 max: 1.38081e+06 average: 6668.32
smoothSolver:  Solving for k, Initial residual = 0.0409641, Final residual = 0.00266189, No Iterations 2
bounding k, min: -0.214065 max: 668.103 average: 2.481
ExecutionTime = 91.24 s  ClockTime = 92 s

Time = 34

smoothSolver:  Solving for Ux, Initial residual = 0.00383185, Final residual = 0.000244843, No Iterations 2
smoothSolver:  Solving for Uy, Initial residual = 0.0165686, Final residual = 0.00073578, No Iterations 2
GAMG:  Solving for p, Initial residual = 0.130777, Final residual = 0.012854, No Iterations 1
time step continuity errors : sum local = 0.0237733, global = 0.000526337, cumulative = -0.0166047
smoothSolver:  Solving for omega, Initial residual = 0.00149382, Final residual = 4.1637e-05, No Iterations 2
smoothSolver:  Solving for k, Initial residual = 0.0431729, Final residual = 0.00258907, No Iterations 2
bounding k, min: -0.403687 max: 908.31 average: 2.81394
ExecutionTime = 93.03 s  ClockTime = 93 s

Time = 35

smoothSolver:  Solving for Ux, Initial residual = 0.00386728, Final residual = 0.000253233, No Iterations 2
smoothSolver:  Solving for Uy, Initial residual = 0.0164299, Final residual = 0.000753234, No Iterations 2
GAMG:  Solving for p, Initial residual = 0.11213, Final residual = 0.00998927, No Iterations 2
time step continuity errors : sum local = 0.0181049, global = -0.00033454, cumulative = -0.0169393
smoothSolver:  Solving for omega, Initial residual = 0.00141708, Final residual = 4.02171e-05, No Iterations 2
smoothSolver:  Solving for k, Initial residual = 0.0450832, Final residual = 0.00256232, No Iterations 2
bounding k, min: -0.46762 max: 1102.41 average: 3.16538
ExecutionTime = 94.98 s  ClockTime = 95 s

Time = 36

smoothSolver:  Solving for Ux, Initial residual = 0.00391824, Final residual = 0.000264064, No Iterations 2
smoothSolver:  Solving for Uy, Initial residual = 0.0181128, Final residual = 0.000779931, No Iterations 2
GAMG:  Solving for p, Initial residual = 0.122461, Final residual = 0.00811689, No Iterations 2
time step continuity errors : sum local = 0.0156119, global = 0.00102208, cumulative = -0.0159172
smoothSolver:  Solving for omega, Initial residual = 0.00132668, Final residual = 3.93005e-05, No Iterations 2
smoothSolver:  Solving for k, Initial residual = 0.047321, Final residual = 0.00258084, No Iterations 2
bounding k, min: -0.434488 max: 1271.49 average: 3.53475
ExecutionTime = 96.93 s  ClockTime = 97 s

Time = 37

smoothSolver:  Solving for Ux, Initial residual = 0.00395134, Final residual = 0.00027725, No Iterations 2
smoothSolver:  Solving for Uy, Initial residual = 0.0183702, Final residual = 0.000807873, No Iterations 2
GAMG:  Solving for p, Initial residual = 0.118261, Final residual = 0.0108769, No Iterations 1
time step continuity errors : sum local = 0.0217113, global = 0.000767773, cumulative = -0.0151494
smoothSolver:  Solving for omega, Initial residual = 0.00145492, Final residual = 4.54822e-05, No Iterations 2
smoothSolver:  Solving for k, Initial residual = 0.0498564, Final residual = 0.00267668, No Iterations 2
bounding k, min: -1.00505 max: 1420.23 average: 3.92126
ExecutionTime = 98.78 s  ClockTime = 99 s

Time = 38

smoothSolver:  Solving for Ux, Initial residual = 0.00402356, Final residual = 0.00029348, No Iterations 2
smoothSolver:  Solving for Uy, Initial residual = 0.0185966, Final residual = 0.000826579, No Iterations 2
GAMG:  Solving for p, Initial residual = 0.119411, Final residual = 0.00872629, No Iterations 2
time step continuity errors : sum local = 0.0180953, global = -0.000723719, cumulative = -0.0158731
smoothSolver:  Solving for omega, Initial residual = 0.00159974, Final residual = 5.08321e-05, No Iterations 2
bounding omega, min: -4.0667 max: 1.39727e+06 average: 6727.43
smoothSolver:  Solving for k, Initial residual = 0.0523247, Final residual = 0.00285955, No Iterations 2
bounding k, min: -0.565259 max: 1525.67 average: 4.32464
ExecutionTime = 100.76 s  ClockTime = 101 s

Time = 39

smoothSolver:  Solving for Ux, Initial residual = 0.0041049, Final residual = 0.000313159, No Iterations 2
smoothSolver:  Solving for Uy, Initial residual = 0.0203149, Final residual = 0.000871729, No Iterations 2
GAMG:  Solving for p, Initial residual = 0.132612, Final residual = 0.0106014, No Iterations 1
time step continuity errors : sum local = 0.0227534, global = -0.000955286, cumulative = -0.0168284
smoothSolver:  Solving for omega, Initial residual = 0.00149655, Final residual = 4.83677e-05, No Iterations 2
bounding omega, min: -3.44341 max: 1.39961e+06 average: 6739.02
smoothSolver:  Solving for k, Initial residual = 0.0541292, Final residual = 0.00305633, No Iterations 2
bounding k, min: -1.64095 max: 1692.48 average: 4.7442
ExecutionTime = 102.56 s  ClockTime = 103 s

Time = 40

smoothSolver:  Solving for Ux, Initial residual = 0.00420491, Final residual = 0.000343898, No Iterations 2
smoothSolver:  Solving for Uy, Initial residual = 0.0202761, Final residual = 0.000905713, No Iterations 2
GAMG:  Solving for p, Initial residual = 0.143293, Final residual = 0.0129777, No Iterations 1
time step continuity errors : sum local = 0.0284661, global = -0.00160229, cumulative = -0.0184307
smoothSolver:  Solving for omega, Initial residual = 0.00159011, Final residual = 5.32503e-05, No Iterations 2
bounding omega, min: -2.56062 max: 1.39234e+06 average: 6753.52
smoothSolver:  Solving for k, Initial residual = 0.0545333, Final residual = 0.00321734, No Iterations 2
bounding k, min: -2.70336 max: 1919.73 average: 5.17942
ExecutionTime = 104.4 s  ClockTime = 105 s

Time = 41

smoothSolver:  Solving for Ux, Initial residual = 0.00434154, Final residual = 0.000385319, No Iterations 2
smoothSolver:  Solving for Uy, Initial residual = 0.020802, Final residual = 0.000972267, No Iterations 2
GAMG:  Solving for p, Initial residual = 0.155931, Final residual = 0.0144079, No Iterations 1
time step continuity errors : sum local = 0.0309045, global = -0.00164415, cumulative = -0.0200749
smoothSolver:  Solving for omega, Initial residual = 0.00153268, Final residual = 5.25655e-05, No Iterations 2
bounding omega, min: -3.71149 max: 1.39117e+06 average: 6767.33
smoothSolver:  Solving for k, Initial residual = 0.0542669, Final residual = 0.0033224, No Iterations 2
bounding k, min: -2.16012 max: 2183.2 average: 5.63
ExecutionTime = 106.22 s  ClockTime = 107 s

Time = 42

smoothSolver:  Solving for Ux, Initial residual = 0.00451798, Final residual = 0.000434698, No Iterations 2
smoothSolver:  Solving for Uy, Initial residual = 0.0220122, Final residual = 0.00108778, No Iterations 2
GAMG:  Solving for p, Initial residual = 0.145884, Final residual = 0.00994555, No Iterations 2
time step continuity errors : sum local = 0.0212095, global = 0.00153245, cumulative = -0.0185424
smoothSolver:  Solving for omega, Initial residual = 0.00163208, Final residual = 5.75019e-05, No Iterations 2
bounding omega, min: -19.9447 max: 1.39576e+06 average: 6783.37
smoothSolver:  Solving for k, Initial residual = 0.0552689, Final residual = 0.00351405, No Iterations 2
bounding k, min: -1.3195 max: 2440.35 average: 6.09648
ExecutionTime = 108.18 s  ClockTime = 109 s

Time = 43

smoothSolver:  Solving for Ux, Initial residual = 0.0047175, Final residual = 0.000214468, No Iterations 3
smoothSolver:  Solving for Uy, Initial residual = 0.0244516, Final residual = 0.00123649, No Iterations 2
GAMG:  Solving for p, Initial residual = 0.141233, Final residual = 0.00910185, No Iterations 1
time step continuity errors : sum local = 0.0259872, global = 0.00154967, cumulative = -0.0169927
smoothSolver:  Solving for omega, Initial residual = 0.0016533, Final residual = 5.7597e-05, No Iterations 2
bounding omega, min: -15.817 max: 1.39354e+06 average: 6795.92
smoothSolver:  Solving for k, Initial residual = 0.0555789, Final residual = 0.00375671, No Iterations 2
bounding k, min: -1.291 max: 2650.91 average: 6.57654
ExecutionTime = 110.12 s  ClockTime = 111 s

Time = 44

smoothSolver:  Solving for Ux, Initial residual = 0.00477199, Final residual = 0.000233738, No Iterations 3
smoothSolver:  Solving for Uy, Initial residual = 0.0244982, Final residual = 0.00126896, No Iterations 2
GAMG:  Solving for p, Initial residual = 0.134883, Final residual = 0.0100906, No Iterations 2
time step continuity errors : sum local = 0.0235952, global = 0.001758, cumulative = -0.0152347
smoothSolver:  Solving for omega, Initial residual = 0.00170905, Final residual = 6.11032e-05, No Iterations 2
bounding omega, min: -44.1133 max: 1.38545e+06 average: 6811.48
smoothSolver:  Solving for k, Initial residual = 0.0540676, Final residual = 0.00394139, No Iterations 2
bounding k, min: -6.01427 max: 2838.03 average: 7.06869
ExecutionTime = 112.13 s  ClockTime = 113 s

Time = 45

smoothSolver:  Solving for Ux, Initial residual = 0.00506605, Final residual = 0.000257319, No Iterations 3
smoothSolver:  Solving for Uy, Initial residual = 0.0271999, Final residual = 0.00152563, No Iterations 2
GAMG:  Solving for p, Initial residual = 0.124668, Final residual = 0.0111197, No Iterations 1
time step continuity errors : sum local = 0.0273919, global = 0.000130492, cumulative = -0.0151042
smoothSolver:  Solving for omega, Initial residual = 0.0018801, Final residual = 6.56416e-05, No Iterations 2
bounding omega, min: -57.571 max: 1.39477e+06 average: 6821.93
smoothSolver:  Solving for k, Initial residual = 0.0528608, Final residual = 0.00410076, No Iterations 2
bounding k, min: -4.20982 max: 3171.29 average: 7.57172
ExecutionTime = 114.01 s  ClockTime = 114 s

Time = 46

smoothSolver:  Solving for Ux, Initial residual = 0.00518912, Final residual = 0.000290006, No Iterations 3
smoothSolver:  Solving for Uy, Initial residual = 0.0276872, Final residual = 0.00162731, No Iterations 2
GAMG:  Solving for p, Initial residual = 0.169311, Final residual = 0.0143355, No Iterations 1
time step continuity errors : sum local = 0.0372982, global = -0.000642226, cumulative = -0.0157465
smoothSolver:  Solving for omega, Initial residual = 0.00207245, Final residual = 6.76068e-05, No Iterations 2
bounding omega, min: -15.2452 max: 1.41503e+06 average: 6836.05
smoothSolver:  Solving for k, Initial residual = 0.051337, Final residual = 0.00431071, No Iterations 2
bounding k, min: -0.338301 max: 4090.55 average: 8.08406
ExecutionTime = 115.9 s  ClockTime = 116 s

Time = 47

smoothSolver:  Solving for Ux, Initial residual = 0.00528034, Final residual = 0.00031928, No Iterations 3
smoothSolver:  Solving for Uy, Initial residual = 0.0260701, Final residual = 0.00153804, No Iterations 2
GAMG:  Solving for p, Initial residual = 0.15862, Final residual = 0.00905694, No Iterations 2
time step continuity errors : sum local = 0.0229014, global = 0.000780464, cumulative = -0.014966
smoothSolver:  Solving for omega, Initial residual = 0.00185893, Final residual = 6.15863e-05, No Iterations 2
bounding omega, min: -1.75972 max: 1.43788e+06 average: 6852.35
smoothSolver:  Solving for k, Initial residual = 0.0499222, Final residual = 0.00452195, No Iterations 2
bounding k, min: -2.71044 max: 5036.7 average: 8.60685
ExecutionTime = 117.89 s  ClockTime = 118 s

Time = 48

smoothSolver:  Solving for Ux, Initial residual = 0.00548907, Final residual = 0.000349042, No Iterations 3
smoothSolver:  Solving for Uy, Initial residual = 0.025324, Final residual = 0.00152158, No Iterations 2
GAMG:  Solving for p, Initial residual = 0.129387, Final residual = 0.01194, No Iterations 1
time step continuity errors : sum local = 0.0295804, global = -0.000312888, cumulative = -0.0152789
smoothSolver:  Solving for omega, Initial residual = 0.00193962, Final residual = 7.16934e-05, No Iterations 2
bounding omega, min: -5.67573 max: 1.45241e+06 average: 6862.89
smoothSolver:  Solving for k, Initial residual = 0.0479249, Final residual = 0.00466792, No Iterations 2
bounding k, min: -0.881619 max: 5562.81 average: 9.13802
ExecutionTime = 119.76 s  ClockTime = 120 s

Time = 49

smoothSolver:  Solving for Ux, Initial residual = 0.00553721, Final residual = 0.000376317, No Iterations 3
smoothSolver:  Solving for Uy, Initial residual = 0.0255252, Final residual = 0.00168485, No Iterations 2
GAMG:  Solving for p, Initial residual = 0.14686, Final residual = 0.0125819, No Iterations 1
time step continuity errors : sum local = 0.0375774, global = -0.000621199, cumulative = -0.0159001
smoothSolver:  Solving for omega, Initial residual = 0.00182888, Final residual = 7.10996e-05, No Iterations 2
smoothSolver:  Solving for k, Initial residual = 0.0460699, Final residual = 0.00166009, No Iterations 3
bounding k, min: -2.08753 max: 5756.97 average: 9.71463
ExecutionTime = 121.64 s  ClockTime = 122 s

Time = 50

smoothSolver:  Solving for Ux, Initial residual = 0.00559874, Final residual = 0.000406158, No Iterations 3
smoothSolver:  Solving for Uy, Initial residual = 0.0255422, Final residual = 0.00179882, No Iterations 2
GAMG:  Solving for p, Initial residual = 0.117524, Final residual = 0.0104694, No Iterations 2
time step continuity errors : sum local = 0.0260887, global = 0.00130338, cumulative = -0.0145967
smoothSolver:  Solving for omega, Initial residual = 0.00198307, Final residual = 7.91399e-05, No Iterations 2
smoothSolver:  Solving for k, Initial residual = 0.0447527, Final residual = 0.00171212, No Iterations 3
bounding k, min: -3.41391 max: 6139.23 average: 10.2981
ExecutionTime = 123.67 s  ClockTime = 124 s

Time = 51

smoothSolver:  Solving for Ux, Initial residual = 0.00573373, Final residual = 0.000435384, No Iterations 3
smoothSolver:  Solving for Uy, Initial residual = 0.0268251, Final residual = 0.0018792, No Iterations 2
GAMG:  Solving for p, Initial residual = 0.114063, Final residual = 0.0112214, No Iterations 1
time step continuity errors : sum local = 0.0324518, global = 0.00212879, cumulative = -0.0124679
smoothSolver:  Solving for omega, Initial residual = 0.00202116, Final residual = 7.78205e-05, No Iterations 2
smoothSolver:  Solving for k, Initial residual = 0.042897, Final residual = 0.00172654, No Iterations 3
bounding k, min: -0.955038 max: 7216.79 average: 10.8862
ExecutionTime = 125.58 s  ClockTime = 126 s

Time = 52

smoothSolver:  Solving for Ux, Initial residual = 0.0058395, Final residual = 0.00046675, No Iterations 3
smoothSolver:  Solving for Uy, Initial residual = 0.0251015, Final residual = 0.0018648, No Iterations 2
GAMG:  Solving for p, Initial residual = 0.137426, Final residual = 0.00837416, No Iterations 2
time step continuity errors : sum local = 0.0236685, global = -8.6001e-05, cumulative = -0.0125539
smoothSolver:  Solving for omega, Initial residual = 0.00207734, Final residual = 7.94854e-05, No Iterations 2
smoothSolver:  Solving for k, Initial residual = 0.0406525, Final residual = 0.00168735, No Iterations 3
bounding k, min: -4.0353 max: 8043.05 average: 11.4769
ExecutionTime = 127.56 s  ClockTime = 128 s

Time = 53

smoothSolver:  Solving for Ux, Initial residual = 0.00588707, Final residual = 0.000496772, No Iterations 3
smoothSolver:  Solving for Uy, Initial residual = 0.0242952, Final residual = 0.00193341, No Iterations 2
GAMG:  Solving for p, Initial residual = 0.119751, Final residual = 0.00787742, No Iterations 2
time step continuity errors : sum local = 0.0197727, global = 0.000587125, cumulative = -0.0119668
smoothSolver:  Solving for omega, Initial residual = 0.00224071, Final residual = 8.87651e-05, No Iterations 2
smoothSolver:  Solving for k, Initial residual = 0.0390465, Final residual = 0.0016438, No Iterations 3
bounding k, min: -0.654503 max: 8615.25 average: 12.0704
ExecutionTime = 129.51 s  ClockTime = 130 s

Time = 54

smoothSolver:  Solving for Ux, Initial residual = 0.00604114, Final residual = 0.000520939, No Iterations 3
smoothSolver:  Solving for Uy, Initial residual = 0.0245057, Final residual = 0.00208612, No Iterations 2
GAMG:  Solving for p, Initial residual = 0.11111, Final residual = 0.0110018, No Iterations 1
time step continuity errors : sum local = 0.0288475, global = 1.767e-05, cumulative = -0.0119491
smoothSolver:  Solving for omega, Initial residual = 0.00230019, Final residual = 9.4934e-05, No Iterations 2
smoothSolver:  Solving for k, Initial residual = 0.0376881, Final residual = 0.00161853, No Iterations 3
bounding k, min: -1.18296 max: 8975.46 average: 12.6671
ExecutionTime = 131.28 s  ClockTime = 132 s

Time = 55

smoothSolver:  Solving for Ux, Initial residual = 0.00614551, Final residual = 0.000545457, No Iterations 3
smoothSolver:  Solving for Uy, Initial residual = 0.0240926, Final residual = 0.00224805, No Iterations 2
GAMG:  Solving for p, Initial residual = 0.117509, Final residual = 0.00810334, No Iterations 2
time step continuity errors : sum local = 0.0219696, global = -0.000504775, cumulative = -0.0124539
smoothSolver:  Solving for omega, Initial residual = 0.00229987, Final residual = 9.80491e-05, No Iterations 2
smoothSolver:  Solving for k, Initial residual = 0.0370013, Final residual = 0.00160879, No Iterations 3
bounding k, min: -0.356398 max: 9110.16 average: 13.2688
ExecutionTime = 133.21 s  ClockTime = 134 s

Time = 56

smoothSolver:  Solving for Ux, Initial residual = 0.00629174, Final residual = 0.000566233, No Iterations 3
smoothSolver:  Solving for Uy, Initial residual = 0.0249028, Final residual = 0.00234627, No Iterations 2
GAMG:  Solving for p, Initial residual = 0.106749, Final residual = 0.010348, No Iterations 1
time step continuity errors : sum local = 0.0287307, global = 0.000192698, cumulative = -0.0122612
smoothSolver:  Solving for omega, Initial residual = 0.00230356, Final residual = 9.64373e-05, No Iterations 2
smoothSolver:  Solving for k, Initial residual = 0.0365764, Final residual = 0.00162383, No Iterations 3
bounding k, min: -2.19014 max: 9530.27 average: 13.8755
ExecutionTime = 135 s  ClockTime = 135 s

Time = 57

smoothSolver:  Solving for Ux, Initial residual = 0.00635713, Final residual = 0.000582749, No Iterations 3
smoothSolver:  Solving for Uy, Initial residual = 0.0243762, Final residual = 0.00241193, No Iterations 2
GAMG:  Solving for p, Initial residual = 0.100458, Final residual = 0.00724136, No Iterations 2
time step continuity errors : sum local = 0.0193974, global = -0.000893997, cumulative = -0.0131552
smoothSolver:  Solving for omega, Initial residual = 0.00233865, Final residual = 9.96181e-05, No Iterations 2
smoothSolver:  Solving for k, Initial residual = 0.0359155, Final residual = 0.00164989, No Iterations 3
bounding k, min: -6.23255 max: 10440.1 average: 14.4884
ExecutionTime = 136.92 s  ClockTime = 137 s

Time = 58

smoothSolver:  Solving for Ux, Initial residual = 0.00642392, Final residual = 0.000601605, No Iterations 3
smoothSolver:  Solving for Uy, Initial residual = 0.0247969, Final residual = 0.001194, No Iterations 3
GAMG:  Solving for p, Initial residual = 0.0984105, Final residual = 0.00629015, No Iterations 2
time step continuity errors : sum local = 0.0172888, global = -0.00037471, cumulative = -0.0135299
smoothSolver:  Solving for omega, Initial residual = 0.00237804, Final residual = 0.000102148, No Iterations 2
bounding omega, min: -72.6466 max: 1.46174e+06 average: 6994.7
smoothSolver:  Solving for k, Initial residual = 0.0362433, Final residual = 0.00167128, No Iterations 3
bounding k, min: -15.6384 max: 10977.9 average: 15.1081
ExecutionTime = 138.87 s  ClockTime = 139 s

Time = 59

smoothSolver:  Solving for Ux, Initial residual = 0.00653922, Final residual = 0.00062653, No Iterations 3
smoothSolver:  Solving for Uy, Initial residual = 0.0242081, Final residual = 0.0024046, No Iterations 2
GAMG:  Solving for p, Initial residual = 0.0894836, Final residual = 0.00525635, No Iterations 2
time step continuity errors : sum local = 0.0149294, global = -0.00100887, cumulative = -0.0145388
smoothSolver:  Solving for omega, Initial residual = 0.00254821, Final residual = 0.00011031, No Iterations 2
smoothSolver:  Solving for k, Initial residual = 0.0356822, Final residual = 0.00167637, No Iterations 3
bounding k, min: -14.1296 max: 11423.2 average: 15.7328
ExecutionTime = 140.78 s  ClockTime = 141 s

Time = 60

smoothSolver:  Solving for Ux, Initial residual = 0.0065668, Final residual = 0.000646393, No Iterations 3
smoothSolver:  Solving for Uy, Initial residual = 0.0243275, Final residual = 0.001253, No Iterations 3
GAMG:  Solving for p, Initial residual = 0.0862974, Final residual = 0.00847441, No Iterations 1
time step continuity errors : sum local = 0.0247962, global = -5.98297e-05, cumulative = -0.0145986
smoothSolver:  Solving for omega, Initial residual = 0.00247796, Final residual = 0.000109392, No Iterations 2
bounding omega, min: -58.5925 max: 1.49584e+06 average: 7015.79
smoothSolver:  Solving for k, Initial residual = 0.0344147, Final residual = 0.00165911, No Iterations 3
bounding k, min: -0.936201 max: 11920.4 average: 16.3584
ExecutionTime = 142.63 s  ClockTime = 143 s

Time = 61

smoothSolver:  Solving for Ux, Initial residual = 0.00659984, Final residual = 0.0003847, No Iterations 4
smoothSolver:  Solving for Uy, Initial residual = 0.0235104, Final residual = 0.001213, No Iterations 3
GAMG:  Solving for p, Initial residual = 0.0788215, Final residual = 0.00670846, No Iterations 2
time step continuity errors : sum local = 0.0201126, global = -0.00156264, cumulative = -0.0161613
smoothSolver:  Solving for omega, Initial residual = 0.00258051, Final residual = 0.00011563, No Iterations 2
bounding omega, min: -126.94 max: 1.51e+06 average: 7027.7
smoothSolver:  Solving for k, Initial residual = 0.033259, Final residual = 0.00161777, No Iterations 3
bounding k, min: -0.806884 max: 12289.5 average: 16.9804
ExecutionTime = 144.61 s  ClockTime = 145 s

Time = 62

smoothSolver:  Solving for Ux, Initial residual = 0.00666084, Final residual = 0.000392906, No Iterations 4
smoothSolver:  Solving for Uy, Initial residual = 0.024775, Final residual = 0.00125041, No Iterations 3
GAMG:  Solving for p, Initial residual = 0.0726104, Final residual = 0.00619444, No Iterations 2
time step continuity errors : sum local = 0.0193534, global = 0.000579694, cumulative = -0.0155816
smoothSolver:  Solving for omega, Initial residual = 0.00240728, Final residual = 0.000112957, No Iterations 2
bounding omega, min: -54.1273 max: 1.54138e+06 average: 7035.77
smoothSolver:  Solving for k, Initial residual = 0.0313274, Final residual = 0.00154592, No Iterations 3
bounding k, min: -1.78881 max: 12469.9 average: 17.5946
ExecutionTime = 146.6 s  ClockTime = 147 s

Time = 63

smoothSolver:  Solving for Ux, Initial residual = 0.00670585, Final residual = 0.00040516, No Iterations 4
smoothSolver:  Solving for Uy, Initial residual = 0.0255224, Final residual = 0.00131162, No Iterations 3
GAMG:  Solving for p, Initial residual = 0.073127, Final residual = 0.00415979, No Iterations 2
time step continuity errors : sum local = 0.0147945, global = -0.000822945, cumulative = -0.0164045
smoothSolver:  Solving for omega, Initial residual = 0.00238263, Final residual = 0.000122295, No Iterations 2
smoothSolver:  Solving for k, Initial residual = 0.0303959, Final residual = 0.00149376, No Iterations 3
bounding k, min: -2.64646 max: 12568 average: 18.2037
ExecutionTime = 148.57 s  ClockTime = 149 s

Time = 64

smoothSolver:  Solving for Ux, Initial residual = 0.00668659, Final residual = 0.000423492, No Iterations 4
smoothSolver:  Solving for Uy, Initial residual = 0.0254435, Final residual = 0.00136826, No Iterations 3
GAMG:  Solving for p, Initial residual = 0.0648767, Final residual = 0.00424635, No Iterations 2
time step continuity errors : sum local = 0.0157295, global = -0.00102095, cumulative = -0.0174255
smoothSolver:  Solving for omega, Initial residual = 0.00262214, Final residual = 0.000128895, No Iterations 2
bounding omega, min: -144.106 max: 1.61048e+06 average: 7052.32
smoothSolver:  Solving for k, Initial residual = 0.0299013, Final residual = 0.00144798, No Iterations 3
bounding k, min: -1.79052 max: 12528.9 average: 18.8112
ExecutionTime = 150.57 s  ClockTime = 151 s

Time = 65

smoothSolver:  Solving for Ux, Initial residual = 0.00663461, Final residual = 0.000443659, No Iterations 4
smoothSolver:  Solving for Uy, Initial residual = 0.0255153, Final residual = 0.00146868, No Iterations 3
GAMG:  Solving for p, Initial residual = 0.0602406, Final residual = 0.00536828, No Iterations 2
time step continuity errors : sum local = 0.0206739, global = 0.000930299, cumulative = -0.0164952
smoothSolver:  Solving for omega, Initial residual = 0.00204363, Final residual = 0.000122248, No Iterations 2
smoothSolver:  Solving for k, Initial residual = 0.0298338, Final residual = 0.00142037, No Iterations 3
bounding k, min: -2.60677 max: 12383.5 average: 19.4256
ExecutionTime = 152.55 s  ClockTime = 153 s

Time = 66

smoothSolver:  Solving for Ux, Initial residual = 0.00678928, Final residual = 0.000456321, No Iterations 4
smoothSolver:  Solving for Uy, Initial residual = 0.0255578, Final residual = 0.00150023, No Iterations 3
GAMG:  Solving for p, Initial residual = 0.0489876, Final residual = 0.00336413, No Iterations 2
time step continuity errors : sum local = 0.016178, global = -0.000116077, cumulative = -0.0166112
smoothSolver:  Solving for omega, Initial residual = 0.00182593, Final residual = 0.000126195, No Iterations 2
bounding omega, min: -193.391 max: 1.61841e+06 average: 7068.87
smoothSolver:  Solving for k, Initial residual = 0.0281868, Final residual = 0.00139305, No Iterations 3
bounding k, min: -0.852819 max: 12183.3 average: 20.0444
ExecutionTime = 154.59 s  ClockTime = 155 s

Time = 67

smoothSolver:  Solving for Ux, Initial residual = 0.00675146, Final residual = 0.000456965, No Iterations 4
smoothSolver:  Solving for Uy, Initial residual = 0.0244582, Final residual = 0.00146399, No Iterations 3
GAMG:  Solving for p, Initial residual = 0.0477441, Final residual = 0.00349336, No Iterations 2
time step continuity errors : sum local = 0.0173842, global = -6.57367e-05, cumulative = -0.016677
smoothSolver:  Solving for omega, Initial residual = 0.00187681, Final residual = 0.000127234, No Iterations 2
bounding omega, min: -263.862 max: 1.66091e+06 average: 7076.68
smoothSolver:  Solving for k, Initial residual = 0.0261091, Final residual = 0.00134199, No Iterations 3
bounding k, min: -1.15179 max: 11956.7 average: 20.6625
ExecutionTime = 156.57 s  ClockTime = 157 s

Time = 68

smoothSolver:  Solving for Ux, Initial residual = 0.00666485, Final residual = 0.000459277, No Iterations 4
smoothSolver:  Solving for Uy, Initial residual = 0.0238746, Final residual = 0.00149416, No Iterations 3
GAMG:  Solving for p, Initial residual = 0.0466554, Final residual = 0.00362291, No Iterations 2
time step continuity errors : sum local = 0.0184714, global = -0.000517704, cumulative = -0.0171947
smoothSolver:  Solving for omega, Initial residual = 0.00170503, Final residual = 0.000120154, No Iterations 2
bounding omega, min: -848.55 max: 1.70544e+06 average: 7083.76
smoothSolver:  Solving for k, Initial residual = 0.024358, Final residual = 0.00128068, No Iterations 3
bounding k, min: -2.31152 max: 12152 average: 21.2757
ExecutionTime = 158.54 s  ClockTime = 159 s

Time = 69

smoothSolver:  Solving for Ux, Initial residual = 0.00663391, Final residual = 0.000472616, No Iterations 4
smoothSolver:  Solving for Uy, Initial residual = 0.0239987, Final residual = 0.00156996, No Iterations 3
GAMG:  Solving for p, Initial residual = 0.044765, Final residual = 0.00289742, No Iterations 2
time step continuity errors : sum local = 0.0153163, global = -0.000664715, cumulative = -0.0178594
smoothSolver:  Solving for omega, Initial residual = 0.00154812, Final residual = 0.000125106, No Iterations 2
bounding omega, min: -271.383 max: 1.73892e+06 average: 7091.49
smoothSolver:  Solving for k, Initial residual = 0.0229998, Final residual = 0.00123682, No Iterations 3
bounding k, min: -1.87887 max: 11963.2 average: 21.8851
ExecutionTime = 160.53 s  ClockTime = 161 s

Time = 70

smoothSolver:  Solving for Ux, Initial residual = 0.00663022, Final residual = 0.000485329, No Iterations 4
smoothSolver:  Solving for Uy, Initial residual = 0.0243695, Final residual = 0.00165453, No Iterations 3
GAMG:  Solving for p, Initial residual = 0.0411145, Final residual = 0.00309907, No Iterations 2
time step continuity errors : sum local = 0.0173594, global = -0.00106488, cumulative = -0.0189243
smoothSolver:  Solving for omega, Initial residual = 0.00141289, Final residual = 0.000123843, No Iterations 2
bounding omega, min: -373.297 max: 1.75571e+06 average: 7099.7
smoothSolver:  Solving for k, Initial residual = 0.0219378, Final residual = 0.00120026, No Iterations 3
bounding k, min: -3.00378 max: 11726.1 average: 22.4892
ExecutionTime = 162.52 s  ClockTime = 163 s

Time = 71

smoothSolver:  Solving for Ux, Initial residual = 0.00664314, Final residual = 0.00049464, No Iterations 4
smoothSolver:  Solving for Uy, Initial residual = 0.0246187, Final residual = 0.00164755, No Iterations 3
GAMG:  Solving for p, Initial residual = 0.0390137, Final residual = 0.00279338, No Iterations 2
time step continuity errors : sum local = 0.0163945, global = -0.00101292, cumulative = -0.0199372
smoothSolver:  Solving for omega, Initial residual = 0.00135499, Final residual = 0.00012432, No Iterations 2
bounding omega, min: -296.772 max: 1.75306e+06 average: 7106.47
smoothSolver:  Solving for k, Initial residual = 0.0211905, Final residual = 0.00117299, No Iterations 3
bounding k, min: -1.53244 max: 11392.3 average: 23.0893
ExecutionTime = 164.5 s  ClockTime = 165 s

Time = 72

smoothSolver:  Solving for Ux, Initial residual = 0.00665447, Final residual = 0.000500132, No Iterations 4
smoothSolver:  Solving for Uy, Initial residual = 0.0246366, Final residual = 0.0016145, No Iterations 3
GAMG:  Solving for p, Initial residual = 0.0389876, Final residual = 0.00262497, No Iterations 2
time step continuity errors : sum local = 0.0161573, global = -0.00104786, cumulative = -0.020985
smoothSolver:  Solving for omega, Initial residual = 0.0014157, Final residual = 0.000135082, No Iterations 2
bounding omega, min: -264.862 max: 1.76315e+06 average: 7111.58
smoothSolver:  Solving for k, Initial residual = 0.0204218, Final residual = 0.00114976, No Iterations 3
bounding k, min: -5.23457 max: 11238.4 average: 23.6853
ExecutionTime = 166.47 s  ClockTime = 167 s

Time = 73

smoothSolver:  Solving for Ux, Initial residual = 0.00662472, Final residual = 0.00050109, No Iterations 4
smoothSolver:  Solving for Uy, Initial residual = 0.0242713, Final residual = 0.00158967, No Iterations 3
GAMG:  Solving for p, Initial residual = 0.0385823, Final residual = 0.00261335, No Iterations 2
time step continuity errors : sum local = 0.0167985, global = -0.000984596, cumulative = -0.0219696
smoothSolver:  Solving for omega, Initial residual = 0.00132555, Final residual = 0.000129804, No Iterations 2
bounding omega, min: -164.317 max: 1.81683e+06 average: 7117.13
smoothSolver:  Solving for k, Initial residual = 0.0197829, Final residual = 0.00112238, No Iterations 3
bounding k, min: -2.10853 max: 11311 average: 24.2781
ExecutionTime = 168.41 s  ClockTime = 169 s

Time = 74

smoothSolver:  Solving for Ux, Initial residual = 0.00661815, Final residual = 0.000502359, No Iterations 4
smoothSolver:  Solving for Uy, Initial residual = 0.0240332, Final residual = 0.00158717, No Iterations 3
GAMG:  Solving for p, Initial residual = 0.0351646, Final residual = 0.00239297, No Iterations 2
time step continuity errors : sum local = 0.0164214, global = -0.000970091, cumulative = -0.0229397
smoothSolver:  Solving for omega, Initial residual = 0.00126026, Final residual = 0.000126016, No Iterations 2
bounding omega, min: -130.765 max: 1.86238e+06 average: 7122.38
smoothSolver:  Solving for k, Initial residual = 0.0192148, Final residual = 0.00110418, No Iterations 3
bounding k, min: -2.84627 max: 11311.8 average: 24.8661
ExecutionTime = 170.38 s  ClockTime = 171 s

Time = 75

smoothSolver:  Solving for Ux, Initial residual = 0.0066346, Final residual = 0.00050695, No Iterations 4
smoothSolver:  Solving for Uy, Initial residual = 0.0240204, Final residual = 0.00158423, No Iterations 3
GAMG:  Solving for p, Initial residual = 0.0324306, Final residual = 0.00233156, No Iterations 2
time step continuity errors : sum local = 0.0171355, global = -0.000583195, cumulative = -0.0235229
smoothSolver:  Solving for omega, Initial residual = 0.00128462, Final residual = 4.93136e-05, No Iterations 3
bounding omega, min: -442.405 max: 1.89062e+06 average: 7127.34
smoothSolver:  Solving for k, Initial residual = 0.0187061, Final residual = 0.00108717, No Iterations 3
bounding k, min: -2.69343 max: 11280.8 average: 25.4508
ExecutionTime = 172.4 s  ClockTime = 173 s

Time = 76

smoothSolver:  Solving for Ux, Initial residual = 0.00667202, Final residual = 0.000508723, No Iterations 4
smoothSolver:  Solving for Uy, Initial residual = 0.0240257, Final residual = 0.00158323, No Iterations 3
GAMG:  Solving for p, Initial residual = 0.0327838, Final residual = 0.00213396, No Iterations 2
time step continuity errors : sum local = 0.0170533, global = -0.000567596, cumulative = -0.0240905
smoothSolver:  Solving for omega, Initial residual = 0.00119361, Final residual = 4.64308e-05, No Iterations 3
bounding omega, min: -677.284 max: 1.89879e+06 average: 7130.71
smoothSolver:  Solving for k, Initial residual = 0.0182696, Final residual = 0.001071, No Iterations 3
bounding k, min: -1.78482 max: 11206.4 average: 26.0334
ExecutionTime = 174.39 s  ClockTime = 175 s

Time = 77

smoothSolver:  Solving for Ux, Initial residual = 0.00669923, Final residual = 0.000509872, No Iterations 4
smoothSolver:  Solving for Uy, Initial residual = 0.0238513, Final residual = 0.00158529, No Iterations 3
GAMG:  Solving for p, Initial residual = 0.0336346, Final residual = 0.00328052, No Iterations 1
time step continuity errors : sum local = 0.0284838, global = -0.000615721, cumulative = -0.0247062
smoothSolver:  Solving for omega, Initial residual = 0.00112124, Final residual = 4.41265e-05, No Iterations 3
bounding omega, min: -234.501 max: 1.88654e+06 average: 7133.63
smoothSolver:  Solving for k, Initial residual = 0.0178956, Final residual = 0.00105665, No Iterations 3
bounding k, min: -1.57852 max: 11079.3 average: 26.6136
ExecutionTime = 176.28 s  ClockTime = 177 s

Time = 78

smoothSolver:  Solving for Ux, Initial residual = 0.00668602, Final residual = 0.00051007, No Iterations 4
smoothSolver:  Solving for Uy, Initial residual = 0.0234467, Final residual = 0.00159273, No Iterations 3
GAMG:  Solving for p, Initial residual = 0.0332808, Final residual = 0.00226297, No Iterations 2
time step continuity errors : sum local = 0.0214568, global = -0.00161076, cumulative = -0.026317
smoothSolver:  Solving for omega, Initial residual = 0.00113836, Final residual = 4.51095e-05, No Iterations 3
bounding omega, min: -7300.92 max: 1.92795e+06 average: 7137.62
smoothSolver:  Solving for k, Initial residual = 0.0175659, Final residual = 0.00104273, No Iterations 3
bounding k, min: -1.8153 max: 10956 average: 27.1899
ExecutionTime = 178.31 s  ClockTime = 179 s

Time = 79

smoothSolver:  Solving for Ux, Initial residual = 0.00672809, Final residual = 0.000510341, No Iterations 4
smoothSolver:  Solving for Uy, Initial residual = 0.0239523, Final residual = 0.00160097, No Iterations 3
GAMG:  Solving for p, Initial residual = 0.0289912, Final residual = 0.00265817, No Iterations 1
time step continuity errors : sum local = 0.0276319, global = -0.00194912, cumulative = -0.0282661
smoothSolver:  Solving for omega, Initial residual = 0.0010882, Final residual = 4.35814e-05, No Iterations 3
bounding omega, min: -1112.72 max: 1.98704e+06 average: 7140.3
smoothSolver:  Solving for k, Initial residual = 0.0172401, Final residual = 0.00102811, No Iterations 3
bounding k, min: -2.44431 max: 10792.3 average: 27.764
ExecutionTime = 180.17 s  ClockTime = 181 s

Time = 80

smoothSolver:  Solving for Ux, Initial residual = 0.00670762, Final residual = 0.000511998, No Iterations 4
smoothSolver:  Solving for Uy, Initial residual = 0.023499, Final residual = 0.00159523, No Iterations 3
GAMG:  Solving for p, Initial residual = 0.027637, Final residual = 0.0021073, No Iterations 2
time step continuity errors : sum local = 0.024052, global = -0.000166627, cumulative = -0.0284327
smoothSolver:  Solving for omega, Initial residual = 0.00110499, Final residual = 4.43149e-05, No Iterations 3
bounding omega, min: -6382.02 max: 2.02419e+06 average: 7143.96
smoothSolver:  Solving for k, Initial residual = 0.0169218, Final residual = 0.00101302, No Iterations 3
bounding k, min: -1.60563 max: 10609.7 average: 28.3358
ExecutionTime = 182.17 s  ClockTime = 183 s

Time = 81

smoothSolver:  Solving for Ux, Initial residual = 0.00684624, Final residual = 0.000514122, No Iterations 4
smoothSolver:  Solving for Uy, Initial residual = 0.0238273, Final residual = 0.00160666, No Iterations 3
GAMG:  Solving for p, Initial residual = 0.0216639, Final residual = 0.0021408, No Iterations 1
time step continuity errors : sum local = 0.0302949, global = -0.000400107, cumulative = -0.0288328
smoothSolver:  Solving for omega, Initial residual = 0.00111274, Final residual = 4.47062e-05, No Iterations 3
bounding omega, min: -1692.06 max: 2.02843e+06 average: 7145.76
smoothSolver:  Solving for k, Initial residual = 0.0166284, Final residual = 0.000997397, No Iterations 3
bounding k, min: -1.77598 max: 10428.3 average: 28.9047
ExecutionTime = 184.1 s  ClockTime = 185 s

Time = 82

smoothSolver:  Solving for Ux, Initial residual = 0.00682768, Final residual = 0.000515164, No Iterations 4
smoothSolver:  Solving for Uy, Initial residual = 0.0234956, Final residual = 0.00162009, No Iterations 3
GAMG:  Solving for p, Initial residual = 0.0221144, Final residual = 0.00136395, No Iterations 2
time step continuity errors : sum local = 0.0194822, global = -0.00137763, cumulative = -0.0302105
smoothSolver:  Solving for omega, Initial residual = 0.00108576, Final residual = 4.40497e-05, No Iterations 3
bounding omega, min: -5981.66 max: 2.01589e+06 average: 7148.99
smoothSolver:  Solving for k, Initial residual = 0.0163612, Final residual = 0.000982867, No Iterations 3
bounding k, min: -1.81536 max: 10218.2 average: 29.4715
ExecutionTime = 186.1 s  ClockTime = 187 s

Time = 83

smoothSolver:  Solving for Ux, Initial residual = 0.00685989, Final residual = 0.000516029, No Iterations 4
smoothSolver:  Solving for Uy, Initial residual = 0.0237094, Final residual = 0.00163779, No Iterations 3
GAMG:  Solving for p, Initial residual = 0.0329256, Final residual = 0.00197572, No Iterations 2
time step continuity errors : sum local = 0.0186913, global = -0.00102044, cumulative = -0.0312309
smoothSolver:  Solving for omega, Initial residual = 0.00104306, Final residual = 4.24374e-05, No Iterations 3
bounding omega, min: -1185.09 max: 2.04998e+06 average: 7151.02
smoothSolver:  Solving for k, Initial residual = 0.0160899, Final residual = 0.000966905, No Iterations 3
bounding k, min: -1.727 max: 10023.6 average: 30.0371
ExecutionTime = 188.15 s  ClockTime = 189 s

Time = 84

smoothSolver:  Solving for Ux, Initial residual = 0.00688363, Final residual = 0.000517952, No Iterations 4
smoothSolver:  Solving for Uy, Initial residual = 0.0237017, Final residual = 0.00163916, No Iterations 3
GAMG:  Solving for p, Initial residual = 0.0424404, Final residual = 0.00248022, No Iterations 2
time step continuity errors : sum local = 0.0184456, global = -0.00089768, cumulative = -0.0321286
smoothSolver:  Solving for omega, Initial residual = 0.00104502, Final residual = 4.27307e-05, No Iterations 3
bounding omega, min: -8889.35 max: 2.10686e+06 average: 7153.61
smoothSolver:  Solving for k, Initial residual = 0.0158231, Final residual = 0.000950187, No Iterations 3
bounding k, min: -1.96081 max: 9820.1 average: 30.5998
ExecutionTime = 190.2 s  ClockTime = 191 s

Time = 85

smoothSolver:  Solving for Ux, Initial residual = 0.00691988, Final residual = 0.000516928, No Iterations 4
smoothSolver:  Solving for Uy, Initial residual = 0.0236498, Final residual = 0.00162565, No Iterations 3
GAMG:  Solving for p, Initial residual = 0.0499964, Final residual = 0.00256594, No Iterations 2
time step continuity errors : sum local = 0.0172162, global = -0.00114488, cumulative = -0.0332735
smoothSolver:  Solving for omega, Initial residual = 0.000969956, Final residual = 3.98136e-05, No Iterations 3
bounding omega, min: -2611.41 max: 2.12498e+06 average: 7154.96
smoothSolver:  Solving for k, Initial residual = 0.0155524, Final residual = 0.000934172, No Iterations 3
bounding k, min: -5.19737 max: 10091.8 average: 31.1608
ExecutionTime = 192.29 s  ClockTime = 193 s

Time = 86

smoothSolver:  Solving for Ux, Initial residual = 0.00695944, Final residual = 0.00051813, No Iterations 4
smoothSolver:  Solving for Uy, Initial residual = 0.0236075, Final residual = 0.00161547, No Iterations 3
GAMG:  Solving for p, Initial residual = 0.0577759, Final residual = 0.00532324, No Iterations 1
time step continuity errors : sum local = 0.033181, global = -0.000459266, cumulative = -0.0337327
smoothSolver:  Solving for omega, Initial residual = 0.00100108, Final residual = 4.1442e-05, No Iterations 3
bounding omega, min: -1094.94 max: 2.11815e+06 average: 7156.29
smoothSolver:  Solving for k, Initial residual = 0.0152852, Final residual = 0.000916692, No Iterations 3
bounding k, min: -1.34721 max: 10495.6 average: 31.7182
ExecutionTime = 194.19 s  ClockTime = 195 s

Time = 87

smoothSolver:  Solving for Ux, Initial residual = 0.00698164, Final residual = 0.000518299, No Iterations 4
smoothSolver:  Solving for Uy, Initial residual = 0.0232149, Final residual = 0.00160436, No Iterations 3
GAMG:  Solving for p, Initial residual = 0.0666318, Final residual = 0.00383566, No Iterations 2
time step continuity errors : sum local = 0.0224808, global = -0.00111753, cumulative = -0.0348503
smoothSolver:  Solving for omega, Initial residual = 0.000955761, Final residual = 3.94726e-05, No Iterations 3
bounding omega, min: -3937.52 max: 2.1035e+06 average: 7159.09
smoothSolver:  Solving for k, Initial residual = 0.0150352, Final residual = 0.000899772, No Iterations 3
bounding k, min: -2.13355 max: 10852.8 average: 32.273
ExecutionTime = 196.18 s  ClockTime = 197 s

Time = 88

smoothSolver:  Solving for Ux, Initial residual = 0.0070417, Final residual = 0.000519937, No Iterations 4
smoothSolver:  Solving for Uy, Initial residual = 0.0238131, Final residual = 0.00161163, No Iterations 3
GAMG:  Solving for p, Initial residual = 0.0670599, Final residual = 0.00554235, No Iterations 1
time step continuity errors : sum local = 0.0312719, global = -0.00174484, cumulative = -0.0365951
smoothSolver:  Solving for omega, Initial residual = 0.000940129, Final residual = 3.89712e-05, No Iterations 3
bounding omega, min: -1491.33 max: 2.16315e+06 average: 7159.97
smoothSolver:  Solving for k, Initial residual = 0.0147757, Final residual = 0.000881979, No Iterations 3
bounding k, min: -2.0104 max: 11177.7 average: 32.8248
ExecutionTime = 198.09 s  ClockTime = 199 s

Time = 89

smoothSolver:  Solving for Ux, Initial residual = 0.00707728, Final residual = 0.000525027, No Iterations 4
smoothSolver:  Solving for Uy, Initial residual = 0.0236302, Final residual = 0.00162121, No Iterations 3
GAMG:  Solving for p, Initial residual = 0.0732941, Final residual = 0.00481087, No Iterations 2
time step continuity errors : sum local = 0.0268492, global = -0.000165801, cumulative = -0.0367609
smoothSolver:  Solving for omega, Initial residual = 0.000957227, Final residual = 3.98193e-05, No Iterations 3
bounding omega, min: -1089.49 max: 2.1991e+06 average: 7162.38
smoothSolver:  Solving for k, Initial residual = 0.0145315, Final residual = 0.000864233, No Iterations 3
bounding k, min: -2.07771 max: 11455.9 average: 33.374
ExecutionTime = 200.19 s  ClockTime = 201 s

Time = 90

smoothSolver:  Solving for Ux, Initial residual = 0.00715267, Final residual = 0.00052685, No Iterations 4
smoothSolver:  Solving for Uy, Initial residual = 0.0240912, Final residual = 0.0016246, No Iterations 3
GAMG:  Solving for p, Initial residual = 0.0731242, Final residual = 0.00697269, No Iterations 1
time step continuity errors : sum local = 0.0387672, global = -0.000395265, cumulative = -0.0371562
smoothSolver:  Solving for omega, Initial residual = 0.000879901, Final residual = 3.66328e-05, No Iterations 3
bounding omega, min: -1154.72 max: 2.19965e+06 average: 7163.4
smoothSolver:  Solving for k, Initial residual = 0.0142849, Final residual = 0.000846424, No Iterations 3
bounding k, min: -5.82039 max: 11702.5 average: 33.9209
ExecutionTime = 202.05 s  ClockTime = 203 s

Time = 91

smoothSolver:  Solving for Ux, Initial residual = 0.00718752, Final residual = 0.000531485, No Iterations 4
smoothSolver:  Solving for Uy, Initial residual = 0.0238158, Final residual = 0.001619, No Iterations 3
GAMG:  Solving for p, Initial residual = 0.0754299, Final residual = 0.00475093, No Iterations 2
time step continuity errors : sum local = 0.0258912, global = -0.00137137, cumulative = -0.0385275
smoothSolver:  Solving for omega, Initial residual = 0.000937127, Final residual = 3.91109e-05, No Iterations 3
bounding omega, min: -2023.51 max: 2.1841e+06 average: 7165.48
smoothSolver:  Solving for k, Initial residual = 0.0140494, Final residual = 0.000827755, No Iterations 3
bounding k, min: -2.32343 max: 11909.2 average: 34.4655
ExecutionTime = 204.07 s  ClockTime = 205 s

Time = 92

smoothSolver:  Solving for Ux, Initial residual = 0.00726569, Final residual = 0.000534937, No Iterations 4
smoothSolver:  Solving for Uy, Initial residual = 0.0242711, Final residual = 0.00162254, No Iterations 3
GAMG:  Solving for p, Initial residual = 0.07538, Final residual = 0.00424891, No Iterations 2
time step continuity errors : sum local = 0.022473, global = -0.000270095, cumulative = -0.0387976
smoothSolver:  Solving for omega, Initial residual = 0.000919399, Final residual = 3.84327e-05, No Iterations 3
bounding omega, min: -6617.66 max: 2.21075e+06 average: 7165.55
smoothSolver:  Solving for k, Initial residual = 0.0137977, Final residual = 0.000810276, No Iterations 3
bounding k, min: -2.93388 max: 12082.8 average: 35.0075
ExecutionTime = 206.13 s  ClockTime = 207 s

Time = 93

smoothSolver:  Solving for Ux, Initial residual = 0.00735206, Final residual = 0.000539562, No Iterations 4
smoothSolver:  Solving for Uy, Initial residual = 0.0241393, Final residual = 0.00161199, No Iterations 3
GAMG:  Solving for p, Initial residual = 0.0797178, Final residual = 0.00751586, No Iterations 1
time step continuity errors : sum local = 0.0398078, global = 0.000816641, cumulative = -0.037981
smoothSolver:  Solving for omega, Initial residual = 0.000933214, Final residual = 3.92233e-05, No Iterations 3
bounding omega, min: -7055.93 max: 2.24698e+06 average: 7166.58
smoothSolver:  Solving for k, Initial residual = 0.0135758, Final residual = 0.000793205, No Iterations 3
bounding k, min: -2.27931 max: 12225.8 average: 35.5474
ExecutionTime = 208.01 s  ClockTime = 209 s

Time = 94

smoothSolver:  Solving for Ux, Initial residual = 0.00737915, Final residual = 0.000541668, No Iterations 4
smoothSolver:  Solving for Uy, Initial residual = 0.0234553, Final residual = 0.00160287, No Iterations 3
GAMG:  Solving for p, Initial residual = 0.0866082, Final residual = 0.00474024, No Iterations 2
time step continuity errors : sum local = 0.0246316, global = -0.000972032, cumulative = -0.038953
smoothSolver:  Solving for omega, Initial residual = 0.000859351, Final residual = 3.61537e-05, No Iterations 3
bounding omega, min: -2776.99 max: 2.25127e+06 average: 7168.19
smoothSolver:  Solving for k, Initial residual = 0.0133657, Final residual = 0.000776124, No Iterations 3
bounding k, min: -1.95297 max: 12332.1 average: 36.0827
ExecutionTime = 210.04 s  ClockTime = 211 s

Time = 95

smoothSolver:  Solving for Ux, Initial residual = 0.00746164, Final residual = 0.000544702, No Iterations 4
smoothSolver:  Solving for Uy, Initial residual = 0.0235168, Final residual = 0.00161587, No Iterations 3
GAMG:  Solving for p, Initial residual = 0.0843061, Final residual = 0.00765657, No Iterations 1
time step continuity errors : sum local = 0.0394575, global = -0.000856286, cumulative = -0.0398093
smoothSolver:  Solving for omega, Initial residual = 0.000882488, Final residual = 3.71716e-05, No Iterations 3
bounding omega, min: -952.899 max: 2.23913e+06 average: 7169.15
smoothSolver:  Solving for k, Initial residual = 0.0131692, Final residual = 0.000759202, No Iterations 3
bounding k, min: -2.85285 max: 12418.1 average: 36.6152
ExecutionTime = 212.02 s  ClockTime = 213 s

Time = 96

smoothSolver:  Solving for Ux, Initial residual = 0.00747914, Final residual = 0.000547172, No Iterations 4
smoothSolver:  Solving for Uy, Initial residual = 0.0228486, Final residual = 0.00161068, No Iterations 3
GAMG:  Solving for p, Initial residual = 0.0854399, Final residual = 0.00494959, No Iterations 2
time step continuity errors : sum local = 0.0253711, global = -7.2146e-05, cumulative = -0.0398815
smoothSolver:  Solving for omega, Initial residual = 0.00088618, Final residual = 3.74486e-05, No Iterations 3
bounding omega, min: -1244.05 max: 2.22735e+06 average: 7170.57
smoothSolver:  Solving for k, Initial residual = 0.0130066, Final residual = 0.000743715, No Iterations 3
bounding k, min: -1.89004 max: 12466.3 average: 37.1448
ExecutionTime = 214.01 s  ClockTime = 215 s

Time = 97

smoothSolver:  Solving for Ux, Initial residual = 0.00747072, Final residual = 0.000546261, No Iterations 4
smoothSolver:  Solving for Uy, Initial residual = 0.0227848, Final residual = 0.00159916, No Iterations 3
GAMG:  Solving for p, Initial residual = 0.0804838, Final residual = 0.00400208, No Iterations 2
time step continuity errors : sum local = 0.0199274, global = -0.000116419, cumulative = -0.0399979
smoothSolver:  Solving for omega, Initial residual = 0.000801069, Final residual = 3.38032e-05, No Iterations 3
bounding omega, min: -6359.57 max: 2.26472e+06 average: 7172.71
smoothSolver:  Solving for k, Initial residual = 0.0128704, Final residual = 0.000730975, No Iterations 3
bounding k, min: -3.63447 max: 12503.8 average: 37.6698
ExecutionTime = 216.03 s  ClockTime = 217 s

Time = 98

smoothSolver:  Solving for Ux, Initial residual = 0.00750429, Final residual = 0.000550491, No Iterations 4
smoothSolver:  Solving for Uy, Initial residual = 0.0225255, Final residual = 0.00158667, No Iterations 3
GAMG:  Solving for p, Initial residual = 0.0754428, Final residual = 0.00371256, No Iterations 2
time step continuity errors : sum local = 0.0181303, global = -6.27858e-05, cumulative = -0.0400607
smoothSolver:  Solving for omega, Initial residual = 0.000933949, Final residual = 3.89778e-05, No Iterations 3
bounding omega, min: -8299.18 max: 2.27975e+06 average: 7172.36
smoothSolver:  Solving for k, Initial residual = 0.0127451, Final residual = 0.000719322, No Iterations 3
bounding k, min: -0.808116 max: 12504.4 average: 38.192
ExecutionTime = 218.09 s  ClockTime = 219 s

Time = 99

smoothSolver:  Solving for Ux, Initial residual = 0.00751845, Final residual = 0.000550904, No Iterations 4
smoothSolver:  Solving for Uy, Initial residual = 0.0221902, Final residual = 0.00156872, No Iterations 3
GAMG:  Solving for p, Initial residual = 0.0742107, Final residual = 0.00341114, No Iterations 2
time step continuity errors : sum local = 0.0163494, global = -2.26685e-05, cumulative = -0.0400833
smoothSolver:  Solving for omega, Initial residual = 0.000881379, Final residual = 3.76672e-05, No Iterations 3
bounding omega, min: -962.572 max: 2.28706e+06 average: 7172.32
smoothSolver:  Solving for k, Initial residual = 0.0126314, Final residual = 0.000707788, No Iterations 3
bounding k, min: -1.12206 max: 12501.2 average: 38.7095
ExecutionTime = 220.14 s  ClockTime = 221 s

Time = 100

smoothSolver:  Solving for Ux, Initial residual = 0.00753962, Final residual = 0.000551962, No Iterations 4
smoothSolver:  Solving for Uy, Initial residual = 0.021722, Final residual = 0.0015554, No Iterations 3
GAMG:  Solving for p, Initial residual = 0.0749525, Final residual = 0.00734712, No Iterations 1
time step continuity errors : sum local = 0.0352103, global = 0.000339575, cumulative = -0.0397438
smoothSolver:  Solving for omega, Initial residual = 0.000854073, Final residual = 3.67149e-05, No Iterations 3
bounding omega, min: -3808.21 max: 2.28969e+06 average: 7172.57
smoothSolver:  Solving for k, Initial residual = 0.0125149, Final residual = 0.000696336, No Iterations 3
bounding k, min: -2.96534 max: 12465 average: 39.2208
ExecutionTime = 224.15 s  ClockTime = 225 s

    functionObjects::turbulenceFields stressComponents writing field: turbulenceProperties:devReff

[...]
bounding k, min: -2.6245e-05 max: 2788.43 average: 51.5863
ExecutionTime = 4254.52 s  ClockTime = 4257 s

Time = 1976

smoothSolver:  Solving for Ux, Initial residual = 0.00023481, Final residual = 1.88828e-05, No Iterations 6
smoothSolver:  Solving for Uy, Initial residual = 0.000472224, Final residual = 3.49268e-05, No Iterations 6
GAMG:  Solving for p, Initial residual = 0.00448881, Final residual = 0.000306016, No Iterations 2
time step continuity errors : sum local = 8.43544e-05, global = 1.78972e-06, cumulative = 0.0283634
smoothSolver:  Solving for omega, Initial residual = 3.18934e-05, Final residual = 2.58078e-06, No Iterations 3
smoothSolver:  Solving for k, Initial residual = 0.000258096, Final residual = 2.18363e-05, No Iterations 3
bounding k, min: -0.000240607 max: 2786.77 average: 51.5738
ExecutionTime = 4256.62 s  ClockTime = 4259 s

Time = 1977

smoothSolver:  Solving for Ux, Initial residual = 0.000234766, Final residual = 1.88802e-05, No Iterations 6
smoothSolver:  Solving for Uy, Initial residual = 0.000472642, Final residual = 3.49743e-05, No Iterations 6
GAMG:  Solving for p, Initial residual = 0.00449699, Final residual = 0.000306828, No Iterations 2
time step continuity errors : sum local = 8.44654e-05, global = 1.9124e-06, cumulative = 0.0283653
smoothSolver:  Solving for omega, Initial residual = 3.1855e-05, Final residual = 2.57785e-06, No Iterations 3
smoothSolver:  Solving for k, Initial residual = 0.000258023, Final residual = 2.18297e-05, No Iterations 3
bounding k, min: -0.000336422 max: 2785.11 average: 51.5612
ExecutionTime = 4258.76 s  ClockTime = 4261 s

Time = 1978

smoothSolver:  Solving for Ux, Initial residual = 0.000234716, Final residual = 1.8877e-05, No Iterations 6
smoothSolver:  Solving for Uy, Initial residual = 0.000473062, Final residual = 3.50236e-05, No Iterations 6
GAMG:  Solving for p, Initial residual = 0.00450252, Final residual = 0.000307197, No Iterations 2
time step continuity errors : sum local = 8.44729e-05, global = 3.43679e-07, cumulative = 0.0283657
smoothSolver:  Solving for omega, Initial residual = 3.18267e-05, Final residual = 2.57569e-06, No Iterations 3
smoothSolver:  Solving for k, Initial residual = 0.000257947, Final residual = 2.18241e-05, No Iterations 3
bounding k, min: -0.000137062 max: 2783.46 average: 51.5486
ExecutionTime = 4260.96 s  ClockTime = 4263 s

Time = 1979

smoothSolver:  Solving for Ux, Initial residual = 0.000234646, Final residual = 1.88716e-05, No Iterations 6
smoothSolver:  Solving for Uy, Initial residual = 0.000473522, Final residual = 3.50724e-05, No Iterations 6
GAMG:  Solving for p, Initial residual = 0.0045162, Final residual = 0.000295646, No Iterations 2
time step continuity errors : sum local = 8.11988e-05, global = 1.13274e-06, cumulative = 0.0283668
smoothSolver:  Solving for omega, Initial residual = 3.18151e-05, Final residual = 2.57469e-06, No Iterations 3
smoothSolver:  Solving for k, Initial residual = 0.000257872, Final residual = 2.18176e-05, No Iterations 3
bounding k, min: -0.000186941 max: 2781.8 average: 51.5361
ExecutionTime = 4263.05 s  ClockTime = 4265 s

Time = 1980

smoothSolver:  Solving for Ux, Initial residual = 0.000234633, Final residual = 1.88718e-05, No Iterations 6
smoothSolver:  Solving for Uy, Initial residual = 0.000473843, Final residual = 3.51145e-05, No Iterations 6
GAMG:  Solving for p, Initial residual = 0.00449707, Final residual = 0.000293735, No Iterations 2
time step continuity errors : sum local = 8.05784e-05, global = -5.59e-07, cumulative = 0.0283663
smoothSolver:  Solving for omega, Initial residual = 3.17775e-05, Final residual = 2.5717e-06, No Iterations 3
smoothSolver:  Solving for k, Initial residual = 0.000257796, Final residual = 2.18109e-05, No Iterations 3
bounding k, min: -0.000139061 max: 2780.15 average: 51.5235
ExecutionTime = 4265.17 s  ClockTime = 4267 s

Time = 1981

smoothSolver:  Solving for Ux, Initial residual = 0.000234544, Final residual = 1.88652e-05, No Iterations 6
smoothSolver:  Solving for Uy, Initial residual = 0.000474384, Final residual = 3.51689e-05, No Iterations 6
GAMG:  Solving for p, Initial residual = 0.00450639, Final residual = 0.000298728, No Iterations 2
time step continuity errors : sum local = 8.18233e-05, global = 4.86299e-07, cumulative = 0.0283667
smoothSolver:  Solving for omega, Initial residual = 3.1766e-05, Final residual = 2.57074e-06, No Iterations 3
smoothSolver:  Solving for k, Initial residual = 0.000257726, Final residual = 2.18047e-05, No Iterations 3
bounding k, min: -0.000313105 max: 2778.5 average: 51.5109
ExecutionTime = 4267.26 s  ClockTime = 4270 s

Time = 1982

smoothSolver:  Solving for Ux, Initial residual = 0.000234539, Final residual = 1.8866e-05, No Iterations 6
smoothSolver:  Solving for Uy, Initial residual = 0.000474727, Final residual = 3.52102e-05, No Iterations 6
GAMG:  Solving for p, Initial residual = 0.00448856, Final residual = 0.000285191, No Iterations 2
time step continuity errors : sum local = 7.80329e-05, global = -8.66866e-07, cumulative = 0.0283659
smoothSolver:  Solving for omega, Initial residual = 3.17454e-05, Final residual = 2.56899e-06, No Iterations 3
smoothSolver:  Solving for k, Initial residual = 0.000257658, Final residual = 2.17996e-05, No Iterations 3
bounding k, min: -0.000144525 max: 2776.85 average: 51.4983
ExecutionTime = 4269.39 s  ClockTime = 4272 s

Time = 1983

smoothSolver:  Solving for Ux, Initial residual = 0.000234449, Final residual = 1.88595e-05, No Iterations 6
smoothSolver:  Solving for Uy, Initial residual = 0.000475226, Final residual = 3.52623e-05, No Iterations 6
GAMG:  Solving for p, Initial residual = 0.00449699, Final residual = 0.000296643, No Iterations 2
time step continuity errors : sum local = 8.1051e-05, global = 2.41764e-07, cumulative = 0.0283661
smoothSolver:  Solving for omega, Initial residual = 3.17213e-05, Final residual = 2.56699e-06, No Iterations 3
smoothSolver:  Solving for k, Initial residual = 0.000257587, Final residual = 2.17929e-05, No Iterations 3
bounding k, min: -5.99219e-05 max: 2775.2 average: 51.4857
ExecutionTime = 4271.51 s  ClockTime = 4274 s

Time = 1984

smoothSolver:  Solving for Ux, Initial residual = 0.000234438, Final residual = 1.88596e-05, No Iterations 6
smoothSolver:  Solving for Uy, Initial residual = 0.000475556, Final residual = 3.53026e-05, No Iterations 6
GAMG:  Solving for p, Initial residual = 0.004484, Final residual = 0.000281485, No Iterations 2
time step continuity errors : sum local = 7.68218e-05, global = -7.57043e-07, cumulative = 0.0283654
smoothSolver:  Solving for omega, Initial residual = 3.16887e-05, Final residual = 2.56449e-06, No Iterations 3
smoothSolver:  Solving for k, Initial residual = 0.000257515, Final residual = 2.17871e-05, No Iterations 3
bounding k, min: -0.000187805 max: 2773.55 average: 51.4731
ExecutionTime = 4273.65 s  ClockTime = 4276 s

Time = 1985

smoothSolver:  Solving for Ux, Initial residual = 0.000234353, Final residual = 1.88534e-05, No Iterations 6
smoothSolver:  Solving for Uy, Initial residual = 0.000476028, Final residual = 3.53522e-05, No Iterations 6
GAMG:  Solving for p, Initial residual = 0.00448116, Final residual = 0.000291011, No Iterations 2
time step continuity errors : sum local = 7.93118e-05, global = 3.07066e-07, cumulative = 0.0283657
smoothSolver:  Solving for omega, Initial residual = 3.16664e-05, Final residual = 2.56267e-06, No Iterations 3
smoothSolver:  Solving for k, Initial residual = 0.000257444, Final residual = 2.17812e-05, No Iterations 3
bounding k, min: -8.09373e-05 max: 2771.9 average: 51.4605
ExecutionTime = 4275.78 s  ClockTime = 4278 s

Time = 1986

smoothSolver:  Solving for Ux, Initial residual = 0.000234338, Final residual = 1.88536e-05, No Iterations 6
smoothSolver:  Solving for Uy, Initial residual = 0.000476356, Final residual = 3.53918e-05, No Iterations 6
GAMG:  Solving for p, Initial residual = 0.00446794, Final residual = 0.000279557, No Iterations 2
time step continuity errors : sum local = 7.6103e-05, global = -6.67066e-07, cumulative = 0.028365
smoothSolver:  Solving for omega, Initial residual = 3.16478e-05, Final residual = 2.56122e-06, No Iterations 3
smoothSolver:  Solving for k, Initial residual = 0.000257375, Final residual = 2.17758e-05, No Iterations 3
bounding k, min: -9.09192e-05 max: 2770.25 average: 51.4479
ExecutionTime = 4277.88 s  ClockTime = 4280 s

Time = 1987

smoothSolver:  Solving for Ux, Initial residual = 0.000234247, Final residual = 1.88474e-05, No Iterations 6
smoothSolver:  Solving for Uy, Initial residual = 0.000476807, Final residual = 3.54391e-05, No Iterations 6
GAMG:  Solving for p, Initial residual = 0.00447334, Final residual = 0.000286007, No Iterations 2
time step continuity errors : sum local = 7.77665e-05, global = 4.51221e-07, cumulative = 0.0283655
smoothSolver:  Solving for omega, Initial residual = 3.15882e-05, Final residual = 2.55636e-06, No Iterations 3
smoothSolver:  Solving for k, Initial residual = 0.000257306, Final residual = 2.17699e-05, No Iterations 3
bounding k, min: -0.000152611 max: 2768.61 average: 51.4353
ExecutionTime = 4280 s  ClockTime = 4282 s

Time = 1988

smoothSolver:  Solving for Ux, Initial residual = 0.000234237, Final residual = 1.88483e-05, No Iterations 6
smoothSolver:  Solving for Uy, Initial residual = 0.000477145, Final residual = 3.54784e-05, No Iterations 6
GAMG:  Solving for p, Initial residual = 0.00447784, Final residual = 0.000275712, No Iterations 2
time step continuity errors : sum local = 7.48941e-05, global = -8.40109e-07, cumulative = 0.0283646
smoothSolver:  Solving for omega, Initial residual = 3.15992e-05, Final residual = 2.55731e-06, No Iterations 3
smoothSolver:  Solving for k, Initial residual = 0.000257243, Final residual = 2.17637e-05, No Iterations 3
bounding k, min: -5.62168e-05 max: 2766.97 average: 51.4227
ExecutionTime = 4282.09 s  ClockTime = 4284 s

Time = 1989

smoothSolver:  Solving for Ux, Initial residual = 0.000234147, Final residual = 1.8842e-05, No Iterations 6
smoothSolver:  Solving for Uy, Initial residual = 0.000477593, Final residual = 3.55254e-05, No Iterations 6
GAMG:  Solving for p, Initial residual = 0.00448835, Final residual = 0.000282532, No Iterations 2
time step continuity errors : sum local = 7.66349e-05, global = 4.79476e-07, cumulative = 0.0283651
smoothSolver:  Solving for omega, Initial residual = 3.15731e-05, Final residual = 2.55514e-06, No Iterations 3
smoothSolver:  Solving for k, Initial residual = 0.000257175, Final residual = 2.17581e-05, No Iterations 3
bounding k, min: -3.39761e-05 max: 2765.32 average: 51.4101
ExecutionTime = 4284.17 s  ClockTime = 4286 s

Time = 1990

smoothSolver:  Solving for Ux, Initial residual = 0.000234137, Final residual = 1.8843e-05, No Iterations 6
smoothSolver:  Solving for Uy, Initial residual = 0.000477906, Final residual = 3.55625e-05, No Iterations 6
GAMG:  Solving for p, Initial residual = 0.0044805, Final residual = 0.000268044, No Iterations 2
time step continuity errors : sum local = 7.26499e-05, global = -1.17488e-06, cumulative = 0.0283639
smoothSolver:  Solving for omega, Initial residual = 3.15525e-05, Final residual = 2.55362e-06, No Iterations 3
smoothSolver:  Solving for k, Initial residual = 0.000257112, Final residual = 2.1753e-05, No Iterations 3
bounding k, min: -4.23239e-05 max: 2763.68 average: 51.3975
ExecutionTime = 4286.29 s  ClockTime = 4289 s

Time = 1991

smoothSolver:  Solving for Ux, Initial residual = 0.000234035, Final residual = 1.88358e-05, No Iterations 6
smoothSolver:  Solving for Uy, Initial residual = 0.000478347, Final residual = 3.56095e-05, No Iterations 6
GAMG:  Solving for p, Initial residual = 0.00447407, Final residual = 0.000280429, No Iterations 2
time step continuity errors : sum local = 7.59191e-05, global = 3.30998e-07, cumulative = 0.0283643
smoothSolver:  Solving for omega, Initial residual = 3.15264e-05, Final residual = 2.55145e-06, No Iterations 3
smoothSolver:  Solving for k, Initial residual = 0.000257047, Final residual = 2.17474e-05, No Iterations 3
bounding k, min: -0.000115852 max: 2762.04 average: 51.3848
ExecutionTime = 4288.39 s  ClockTime = 4291 s

Time = 1992

smoothSolver:  Solving for Ux, Initial residual = 0.000234033, Final residual = 1.88373e-05, No Iterations 6
smoothSolver:  Solving for Uy, Initial residual = 0.000478665, Final residual = 3.56451e-05, No Iterations 6
GAMG:  Solving for p, Initial residual = 0.00445972, Final residual = 0.000259156, No Iterations 2
time step continuity errors : sum local = 7.00955e-05, global = -1.46592e-06, cumulative = 0.0283628
smoothSolver:  Solving for omega, Initial residual = 3.15031e-05, Final residual = 2.54958e-06, No Iterations 3
smoothSolver:  Solving for k, Initial residual = 0.000256985, Final residual = 2.1742e-05, No Iterations 3
bounding k, min: -0.000178272 max: 2760.4 average: 51.3722
ExecutionTime = 4290.51 s  ClockTime = 4293 s

Time = 1993

smoothSolver:  Solving for Ux, Initial residual = 0.000233926, Final residual = 1.88296e-05, No Iterations 6
smoothSolver:  Solving for Uy, Initial residual = 0.000479083, Final residual = 3.56913e-05, No Iterations 6
GAMG:  Solving for p, Initial residual = 0.00445557, Final residual = 0.000279233, No Iterations 2
time step continuity errors : sum local = 7.54423e-05, global = 1.06999e-07, cumulative = 0.0283629
smoothSolver:  Solving for omega, Initial residual = 3.14761e-05, Final residual = 2.54746e-06, No Iterations 3
smoothSolver:  Solving for k, Initial residual = 0.000256923, Final residual = 2.17369e-05, No Iterations 3
bounding k, min: -0.000156872 max: 2758.76 average: 51.3595
ExecutionTime = 4292.63 s  ClockTime = 4295 s

Time = 1994

smoothSolver:  Solving for Ux, Initial residual = 0.000233925, Final residual = 1.88311e-05, No Iterations 6
smoothSolver:  Solving for Uy, Initial residual = 0.000479403, Final residual = 3.57257e-05, No Iterations 6
GAMG:  Solving for p, Initial residual = 0.00444933, Final residual = 0.000250854, No Iterations 2
time step continuity errors : sum local = 6.77184e-05, global = -1.65991e-06, cumulative = 0.0283612
smoothSolver:  Solving for omega, Initial residual = 3.14569e-05, Final residual = 2.54592e-06, No Iterations 3
smoothSolver:  Solving for k, Initial residual = 0.000256863, Final residual = 2.17315e-05, No Iterations 3
bounding k, min: -1.73641e-05 max: 2757.13 average: 51.3469
ExecutionTime = 4294.77 s  ClockTime = 4297 s

Time = 1995

smoothSolver:  Solving for Ux, Initial residual = 0.000233815, Final residual = 1.88232e-05, No Iterations 6
smoothSolver:  Solving for Uy, Initial residual = 0.000479784, Final residual = 3.57701e-05, No Iterations 6
GAMG:  Solving for p, Initial residual = 0.00444428, Final residual = 0.000276802, No Iterations 2
time step continuity errors : sum local = 7.46424e-05, global = -9.48008e-08, cumulative = 0.0283611
smoothSolver:  Solving for omega, Initial residual = 3.14191e-05, Final residual = 2.54288e-06, No Iterations 3
smoothSolver:  Solving for k, Initial residual = 0.000256804, Final residual = 2.17268e-05, No Iterations 3
bounding k, min: -0.000105477 max: 2755.49 average: 51.3342
ExecutionTime = 4296.83 s  ClockTime = 4299 s

Time = 1996

smoothSolver:  Solving for Ux, Initial residual = 0.000233811, Final residual = 1.88244e-05, No Iterations 6
smoothSolver:  Solving for Uy, Initial residual = 0.000480098, Final residual = 3.58034e-05, No Iterations 6
GAMG:  Solving for p, Initial residual = 0.0044273, Final residual = 0.00024396, No Iterations 2
time step continuity errors : sum local = 6.57265e-05, global = -1.77577e-06, cumulative = 0.0283594
smoothSolver:  Solving for omega, Initial residual = 3.13911e-05, Final residual = 2.54071e-06, No Iterations 3
smoothSolver:  Solving for k, Initial residual = 0.000256746, Final residual = 2.17221e-05, No Iterations 3
bounding k, min: -3.37378e-05 max: 2753.86 average: 51.3216
ExecutionTime = 4298.89 s  ClockTime = 4301 s

Time = 1997

smoothSolver:  Solving for Ux, Initial residual = 0.000233706, Final residual = 1.88171e-05, No Iterations 6
smoothSolver:  Solving for Uy, Initial residual = 0.000480458, Final residual = 3.58469e-05, No Iterations 6
GAMG:  Solving for p, Initial residual = 0.00440662, Final residual = 0.000273602, No Iterations 2
time step continuity errors : sum local = 7.3637e-05, global = -2.28155e-07, cumulative = 0.0283591
smoothSolver:  Solving for omega, Initial residual = 3.13888e-05, Final residual = 2.54019e-06, No Iterations 3
smoothSolver:  Solving for k, Initial residual = 0.000256686, Final residual = 2.17168e-05, No Iterations 3
bounding k, min: -2.34195e-06 max: 2752.22 average: 51.3089
ExecutionTime = 4301.02 s  ClockTime = 4303 s

Time = 1998

smoothSolver:  Solving for Ux, Initial residual = 0.0002337, Final residual = 1.88181e-05, No Iterations 6
smoothSolver:  Solving for Uy, Initial residual = 0.000480768, Final residual = 3.58797e-05, No Iterations 6
GAMG:  Solving for p, Initial residual = 0.00439174, Final residual = 0.000238169, No Iterations 2
time step continuity errors : sum local = 6.4051e-05, global = -1.86419e-06, cumulative = 0.0283573
smoothSolver:  Solving for omega, Initial residual = 3.13606e-05, Final residual = 2.53816e-06, No Iterations 3
smoothSolver:  Solving for k, Initial residual = 0.000256631, Final residual = 2.17121e-05, No Iterations 3
bounding k, min: -0.000131783 max: 2750.59 average: 51.2962
ExecutionTime = 4303.18 s  ClockTime = 4305 s

Time = 1999

smoothSolver:  Solving for Ux, Initial residual = 0.000233591, Final residual = 1.88104e-05, No Iterations 6
smoothSolver:  Solving for Uy, Initial residual = 0.000481095, Final residual = 3.59212e-05, No Iterations 6
GAMG:  Solving for p, Initial residual = 0.0043756, Final residual = 0.000269943, No Iterations 2
time step continuity errors : sum local = 7.24926e-05, global = -3.05109e-07, cumulative = 0.028357
smoothSolver:  Solving for omega, Initial residual = 3.13247e-05, Final residual = 2.53536e-06, No Iterations 3
smoothSolver:  Solving for k, Initial residual = 0.000256575, Final residual = 2.17072e-05, No Iterations 3
bounding k, min: -0.000116857 max: 2748.96 average: 51.2836
ExecutionTime = 4305.23 s  ClockTime = 4307 s

Time = 2000

smoothSolver:  Solving for Ux, Initial residual = 0.000233587, Final residual = 1.88115e-05, No Iterations 6
smoothSolver:  Solving for Uy, Initial residual = 0.000481421, Final residual = 3.59542e-05, No Iterations 6
GAMG:  Solving for p, Initial residual = 0.00436518, Final residual = 0.000232807, No Iterations 2
time step continuity errors : sum local = 6.24528e-05, global = -1.9528e-06, cumulative = 0.028355
smoothSolver:  Solving for omega, Initial residual = 3.13191e-05, Final residual = 2.53465e-06, No Iterations 3
smoothSolver:  Solving for k, Initial residual = 0.000256522, Final residual = 2.17024e-05, No Iterations 3
bounding k, min: -2.3483e-05 max: 2747.33 average: 51.2709
ExecutionTime = 4309.38 s  ClockTime = 4312 s

    functionObjects::turbulenceFields stressComponents writing field: turbulenceProperties:devReff

    functionObjects::pressure pressureCoefficient writing field: cp
--> FOAM Warning : 
    From Foam::IOobjectList Foam::sampledSets::preCheckFields(unsigned int)
    in file sampledSet/sampledSets/sampledSets.C at line 216
    
Cannot find registered field matching 1(U.mag)
writeCellCentres writeCellCentres write:
    writing cell-centres field C to 2000
    Writing the x component field of the cell-centres Cx to 2000
    Writing the y component field of the cell-centres Cy to 2000
    Writing the z component field of the cell-centres Cz to 2000
wallShearStress wallShearStress write:
    writing field wallShearStress
    min/max(upperWall) = (-5.64846 -0.00317147 -1.166e-19), (60.2151 0.00490635 1.41929e-19)
    min/max(lowerWall) = (-34.4429 -0.060272 -7.79661e-19), (14.0149 29.2866 4.68919e-19)
End

