/*---------------------------------------------------------------------------*\
| =========                 |                                                 |
| \\      /  F ield         | OpenFOAM: The Open Source CFD Toolbox           |
|  \\    /   O peration     | Version:  2506                                  |
|   \\  /    A nd           | Website:  www.openfoam.com                      |
|    \\/     M anipulation  |                                                 |
\*---------------------------------------------------------------------------*/
Build  : _615aae61-20250627 OPENFOAM=2506 version=v2506
Arch   : "LSB;label=32;scalar=64"
Exec   : simpleFoam
Date   : Oct 24 2025
Time   : 17:40:07
Host   : DESKTOP-S27TKU1
PID    : 27944
I/O    : uncollated
Case   : /home/durai/OpenFOAM/durai-v2506/run/clean-tut-Files/test/backwardFacingStep2D
nProcs : 1
trapFpe: Floating point exception trapping enabled (FOAM_SIGFPE).
fileModificationChecking : Monitoring run-time modified files using timeStampMaster (fileModificationSkew 5, maxFileModificationPolls 20)
allowSystemOperations : Allowing user-supplied system call operations

// * * * * * * * * * * * * * * * * * * * * * * * * * * * * * * * * * * * * * //
Create time

Create mesh for time = 0


SIMPLE: convergence criteria
    field p	 tolerance 0.0001
    field U	 tolerance 1e-06
    field "(k|epsilon|omega|f|v2)"	 tolerance 1e-05

Reading field p

Reading field U

Reading/calculating face flux field phi

Selecting incompressible transport model Newtonian
Selecting turbulence model type RAS
Selecting RAS turbulence model kOmegaSST
Selecting patchDistMethod meshWave
RAS
{
    RASModel        kOmegaSST;
    turbulence      on;
    printCoeffs     on;
    alphaK1         0.85;
    alphaK2         1;
    alphaOmega1     0.5;
    alphaOmega2     0.856;
    gamma1          0.555556;
    gamma2          0.44;
    beta1           0.075;
    beta2           0.0828;
    betaStar        0.09;
    a1              0.31;
    b1              1;
    c1              10;
    F3              false;
    decayControl    false;
    kInf            0;
    omegaInf        0;
}

No MRF models present

No finite volume options present

Starting time loop

turbulenceFields stressComponents: storing fields:
    turbulenceProperties:devReff

pressure pressureCoefficient:
    Operating mode: staticCoeff
    Not including hydrostatic effects

Sampled set:
    Uref -> csv
    x_by_h_01 -> csv
    x_by_h_04 -> csv
    x_by_h_06 -> csv
    x_by_h_10 -> csv

wallShearStress wallShearStress:
    processing all (2) wall patches

Time = 1

smoothSolver:  Solving for Ux, Initial residual = 1, Final residual = 0.0019438, No Iterations 1
smoothSolver:  Solving for Uy, Initial residual = 1, Final residual = 0.0702304, No Iterations 2
GAMG:  Solving for p, Initial residual = 1, Final residual = 0.0936505, No Iterations 37
time step continuity errors : sum local = 0.0222247, global = 0.00423683, cumulative = 0.00423683
smoothSolver:  Solving for omega, Initial residual = 0.998918, Final residual = 0.000112712, No Iterations 1
smoothSolver:  Solving for k, Initial residual = 1, Final residual = 0.00213104, No Iterations 1
ExecutionTime = 3.62 s  ClockTime = 4 s

Time = 2

smoothSolver:  Solving for Ux, Initial residual = 0.00198902, Final residual = 9.67677e-05, No Iterations 2
smoothSolver:  Solving for Uy, Initial residual = 0.0120767, Final residual = 0.000672991, No Iterations 2
GAMG:  Solving for p, Initial residual = 0.955221, Final residual = 0.0905576, No Iterations 37
time step continuity errors : sum local = 0.0630486, global = -0.000122043, cumulative = 0.00411478
smoothSolver:  Solving for omega, Initial residual = 0.903637, Final residual = 0.00202858, No Iterations 1
smoothSolver:  Solving for k, Initial residual = 0.863458, Final residual = 0.012113, No Iterations 1
ExecutionTime = 4.85 s  ClockTime = 5 s

Time = 3

smoothSolver:  Solving for Ux, Initial residual = 0.0113211, Final residual = 0.000697656, No Iterations 2
smoothSolver:  Solving for Uy, Initial residual = 0.289646, Final residual = 0.0153642, No Iterations 2
GAMG:  Solving for p, Initial residual = 0.490865, Final residual = 0.0477004, No Iterations 3
time step continuity errors : sum local = 0.0718298, global = 0.0100231, cumulative = 0.0141379
smoothSolver:  Solving for omega, Initial residual = 0.298262, Final residual = 0.00465552, No Iterations 1
bounding omega, min: -281.573 max: 1.84596e+06 average: 8186.93
smoothSolver:  Solving for k, Initial residual = 0.263388, Final residual = 0.0160827, No Iterations 1
ExecutionTime = 5.21 s  ClockTime = 6 s

Time = 4

smoothSolver:  Solving for Ux, Initial residual = 0.00630682, Final residual = 0.000400465, No Iterations 2
smoothSolver:  Solving for Uy, Initial residual = 0.105297, Final residual = 0.00674827, No Iterations 2
GAMG:  Solving for p, Initial residual = 0.385884, Final residual = 0.0339669, No Iterations 5
time step continuity errors : sum local = 0.0410087, global = -0.00607781, cumulative = 0.00806006
smoothSolver:  Solving for omega, Initial residual = 0.0810079, Final residual = 0.0052358, No Iterations 1
smoothSolver:  Solving for k, Initial residual = 0.113443, Final residual = 0.00555635, No Iterations 1
ExecutionTime = 5.62 s  ClockTime = 6 s

Time = 5

smoothSolver:  Solving for Ux, Initial residual = 0.00505145, Final residual = 0.000331248, No Iterations 2
smoothSolver:  Solving for Uy, Initial residual = 0.0385269, Final residual = 0.00204208, No Iterations 2
GAMG:  Solving for p, Initial residual = 0.265024, Final residual = 0.0250677, No Iterations 5
time step continuity errors : sum local = 0.0271606, global = 0.00346306, cumulative = 0.0115231
smoothSolver:  Solving for omega, Initial residual = 0.032342, Final residual = 0.0025557, No Iterations 1
smoothSolver:  Solving for k, Initial residual = 0.0581999, Final residual = 0.00219525, No Iterations 1
bounding k, min: -0.000821758 max: 0.902096 average: 0.000521595
ExecutionTime = 6.04 s  ClockTime = 7 s

Time = 6

smoothSolver:  Solving for Ux, Initial residual = 0.00548375, Final residual = 0.000361235, No Iterations 2
smoothSolver:  Solving for Uy, Initial residual = 0.0541178, Final residual = 0.00322704, No Iterations 2
GAMG:  Solving for p, Initial residual = 0.136089, Final residual = 0.0107086, No Iterations 4
time step continuity errors : sum local = 0.0136037, global = 0.00107572, cumulative = 0.0125988
smoothSolver:  Solving for omega, Initial residual = 0.0188873, Final residual = 0.0016694, No Iterations 1
smoothSolver:  Solving for k, Initial residual = 0.0445161, Final residual = 0.00138043, No Iterations 1
bounding k, min: -3.08296e-05 max: 6.20011 average: 0.000809514
ExecutionTime = 6.44 s  ClockTime = 7 s

Time = 7

smoothSolver:  Solving for Ux, Initial residual = 0.00586862, Final residual = 0.000388936, No Iterations 2
smoothSolver:  Solving for Uy, Initial residual = 0.0554517, Final residual = 0.00324521, No Iterations 2
GAMG:  Solving for p, Initial residual = 0.0844867, Final residual = 0.00661571, No Iterations 5
time step continuity errors : sum local = 0.0107535, global = -0.00089067, cumulative = 0.0117082
smoothSolver:  Solving for omega, Initial residual = 0.0142459, Final residual = 0.00124317, No Iterations 1
bounding omega, min: -31.6509 max: 799858 average: 6575.58
smoothSolver:  Solving for k, Initial residual = 0.0499002, Final residual = 0.00122734, No Iterations 1
bounding k, min: -4.346e-05 max: 16.6926 average: 0.00135022
ExecutionTime = 6.87 s  ClockTime = 7 s

Time = 8

smoothSolver:  Solving for Ux, Initial residual = 0.00553556, Final residual = 0.000379666, No Iterations 2
smoothSolver:  Solving for Uy, Initial residual = 0.0316919, Final residual = 0.00174836, No Iterations 2
GAMG:  Solving for p, Initial residual = 0.0645591, Final residual = 0.00593538, No Iterations 3
time step continuity errors : sum local = 0.0105432, global = -0.00148731, cumulative = 0.0102209
smoothSolver:  Solving for omega, Initial residual = 0.0104069, Final residual = 0.00097087, No Iterations 1
smoothSolver:  Solving for k, Initial residual = 0.0417931, Final residual = 0.00111235, No Iterations 1
bounding k, min: -9.84216e-05 max: 22.7855 average: 0.00207549
ExecutionTime = 7.24 s  ClockTime = 8 s

Time = 9

smoothSolver:  Solving for Ux, Initial residual = 0.00572044, Final residual = 0.000386795, No Iterations 2
smoothSolver:  Solving for Uy, Initial residual = 0.0242332, Final residual = 0.00130305, No Iterations 2
GAMG:  Solving for p, Initial residual = 0.108462, Final residual = 0.00890192, No Iterations 1
time step continuity errors : sum local = 0.0151117, global = -0.00228413, cumulative = 0.00793673
smoothSolver:  Solving for omega, Initial residual = 0.00860179, Final residual = 0.000798355, No Iterations 1
smoothSolver:  Solving for k, Initial residual = 0.0422314, Final residual = 0.00117571, No Iterations 1
bounding k, min: -0.000216695 max: 22.6286 average: 0.00312657
ExecutionTime = 7.57 s  ClockTime = 8 s

Time = 10

smoothSolver:  Solving for Ux, Initial residual = 0.0060487, Final residual = 0.000403415, No Iterations 2
smoothSolver:  Solving for Uy, Initial residual = 0.0233762, Final residual = 0.00128815, No Iterations 2
GAMG:  Solving for p, Initial residual = 0.0847461, Final residual = 0.0066075, No Iterations 5
time step continuity errors : sum local = 0.0103051, global = -0.000656906, cumulative = 0.00727983
smoothSolver:  Solving for omega, Initial residual = 0.00812617, Final residual = 0.000699005, No Iterations 1
smoothSolver:  Solving for k, Initial residual = 0.0509658, Final residual = 0.0013217, No Iterations 1
bounding k, min: -9.41097e-05 max: 20.5405 average: 0.00496137
ExecutionTime = 7.98 s  ClockTime = 8 s

Time = 11

smoothSolver:  Solving for Ux, Initial residual = 0.00667236, Final residual = 0.000402875, No Iterations 2
smoothSolver:  Solving for Uy, Initial residual = 0.025123, Final residual = 0.00122529, No Iterations 2
GAMG:  Solving for p, Initial residual = 0.127464, Final residual = 0.00884689, No Iterations 1
time step continuity errors : sum local = 0.0173858, global = 0.00229761, cumulative = 0.00957744
smoothSolver:  Solving for omega, Initial residual = 0.00715096, Final residual = 0.000558401, No Iterations 1
smoothSolver:  Solving for k, Initial residual = 0.0578231, Final residual = 0.00145014, No Iterations 1
bounding k, min: -0.000113944 max: 32.2995 average: 0.00819871
ExecutionTime = 8.3 s  ClockTime = 9 s

Time = 12

smoothSolver:  Solving for Ux, Initial residual = 0.00684851, Final residual = 0.000405868, No Iterations 2
smoothSolver:  Solving for Uy, Initial residual = 0.0250893, Final residual = 0.0012651, No Iterations 2
GAMG:  Solving for p, Initial residual = 0.107869, Final residual = 0.00971092, No Iterations 2
time step continuity errors : sum local = 0.0178744, global = -0.000661365, cumulative = 0.00891608
smoothSolver:  Solving for omega, Initial residual = 0.00665591, Final residual = 0.000426011, No Iterations 1
smoothSolver:  Solving for k, Initial residual = 0.0576545, Final residual = 0.00150914, No Iterations 1
bounding k, min: -0.00237047 max: 45.334 average: 0.0138207
ExecutionTime = 8.64 s  ClockTime = 9 s

Time = 13

smoothSolver:  Solving for Ux, Initial residual = 0.00683256, Final residual = 0.000396642, No Iterations 2
smoothSolver:  Solving for Uy, Initial residual = 0.024279, Final residual = 0.00113762, No Iterations 2
GAMG:  Solving for p, Initial residual = 0.157821, Final residual = 0.0112732, No Iterations 1
time step continuity errors : sum local = 0.0224484, global = 0.00143969, cumulative = 0.0103558
smoothSolver:  Solving for omega, Initial residual = 0.00680042, Final residual = 0.000352886, No Iterations 1
smoothSolver:  Solving for k, Initial residual = 0.0570154, Final residual = 0.00167406, No Iterations 1
bounding k, min: -0.00532228 max: 51.8156 average: 0.0236149
ExecutionTime = 8.97 s  ClockTime = 9 s

Time = 14

smoothSolver:  Solving for Ux, Initial residual = 0.00680369, Final residual = 0.000384109, No Iterations 2
smoothSolver:  Solving for Uy, Initial residual = 0.0235989, Final residual = 0.0010926, No Iterations 2
GAMG:  Solving for p, Initial residual = 0.123003, Final residual = 0.0120796, No Iterations 2
time step continuity errors : sum local = 0.0210079, global = -0.00174105, cumulative = 0.00861471
smoothSolver:  Solving for omega, Initial residual = 0.00456741, Final residual = 0.000238957, No Iterations 1
bounding omega, min: -49.0396 max: 578228 average: 6368.13
smoothSolver:  Solving for k, Initial residual = 0.0533508, Final residual = 0.00174875, No Iterations 1
bounding k, min: -0.00579614 max: 55.1455 average: 0.0406663
ExecutionTime = 9.31 s  ClockTime = 10 s

Time = 15

smoothSolver:  Solving for Ux, Initial residual = 0.00708891, Final residual = 0.000400223, No Iterations 2
smoothSolver:  Solving for Uy, Initial residual = 0.0289856, Final residual = 0.00126836, No Iterations 2
GAMG:  Solving for p, Initial residual = 0.177974, Final residual = 0.014746, No Iterations 1
time step continuity errors : sum local = 0.0292914, global = 0.000803887, cumulative = 0.0094186
smoothSolver:  Solving for omega, Initial residual = 0.00584069, Final residual = 0.000289105, No Iterations 1
bounding omega, min: -23.456 max: 539971 average: 6350.3
smoothSolver:  Solving for k, Initial residual = 0.0522523, Final residual = 0.00184123, No Iterations 1
bounding k, min: -0.0164517 max: 58.0851 average: 0.0703405
ExecutionTime = 9.65 s  ClockTime = 10 s

Time = 16

smoothSolver:  Solving for Ux, Initial residual = 0.00717606, Final residual = 0.000410032, No Iterations 2
smoothSolver:  Solving for Uy, Initial residual = 0.0289823, Final residual = 0.00121756, No Iterations 2
GAMG:  Solving for p, Initial residual = 0.136995, Final residual = 0.0130864, No Iterations 3
time step continuity errors : sum local = 0.0244077, global = 0.00317091, cumulative = 0.0125895
smoothSolver:  Solving for omega, Initial residual = 0.00556218, Final residual = 0.000277699, No Iterations 1
smoothSolver:  Solving for k, Initial residual = 0.051756, Final residual = 0.00190558, No Iterations 1
bounding k, min: -0.0229729 max: 63.8697 average: 0.121814
ExecutionTime = 10.01 s  ClockTime = 10 s

Time = 17

smoothSolver:  Solving for Ux, Initial residual = 0.00735292, Final residual = 0.000415604, No Iterations 2
smoothSolver:  Solving for Uy, Initial residual = 0.0346403, Final residual = 0.00135119, No Iterations 2
GAMG:  Solving for p, Initial residual = 0.116702, Final residual = 0.00933246, No Iterations 2
time step continuity errors : sum local = 0.0216575, global = -0.00225491, cumulative = 0.0103346
smoothSolver:  Solving for omega, Initial residual = 0.00610587, Final residual = 0.000290114, No Iterations 1
smoothSolver:  Solving for k, Initial residual = 0.0505547, Final residual = 0.00198319, No Iterations 1
bounding k, min: -0.029449 max: 75.6501 average: 0.209233
ExecutionTime = 10.37 s  ClockTime = 11 s

Time = 18

smoothSolver:  Solving for Ux, Initial residual = 0.00769739, Final residual = 0.000417846, No Iterations 2
smoothSolver:  Solving for Uy, Initial residual = 0.0361743, Final residual = 0.00139407, No Iterations 2
GAMG:  Solving for p, Initial residual = 0.0920212, Final residual = 0.00732052, No Iterations 2
time step continuity errors : sum local = 0.0195269, global = -0.000626538, cumulative = 0.00970806
smoothSolver:  Solving for omega, Initial residual = 0.00547059, Final residual = 0.000289864, No Iterations 1
smoothSolver:  Solving for k, Initial residual = 0.0510262, Final residual = 0.00209687, No Iterations 1
bounding k, min: -0.0441733 max: 77.4976 average: 0.35347
ExecutionTime = 10.71 s  ClockTime = 11 s

Time = 19

smoothSolver:  Solving for Ux, Initial residual = 0.00774467, Final residual = 0.000419929, No Iterations 2
smoothSolver:  Solving for Uy, Initial residual = 0.0392566, Final residual = 0.00147705, No Iterations 2
GAMG:  Solving for p, Initial residual = 0.139071, Final residual = 0.00804701, No Iterations 1
time step continuity errors : sum local = 0.0229991, global = 0.0013167, cumulative = 0.0110248
smoothSolver:  Solving for omega, Initial residual = 0.00603234, Final residual = 0.00031089, No Iterations 1
smoothSolver:  Solving for k, Initial residual = 0.0512294, Final residual = 0.00233413, No Iterations 1
bounding k, min: -0.127436 max: 72.4039 average: 0.582192
ExecutionTime = 11.04 s  ClockTime = 11 s

Time = 20

smoothSolver:  Solving for Ux, Initial residual = 0.00781719, Final residual = 0.000422668, No Iterations 2
smoothSolver:  Solving for Uy, Initial residual = 0.0384216, Final residual = 0.00145844, No Iterations 2
GAMG:  Solving for p, Initial residual = 0.100774, Final residual = 0.00847176, No Iterations 2
time step continuity errors : sum local = 0.0218915, global = -0.00111078, cumulative = 0.00991399
smoothSolver:  Solving for omega, Initial residual = 0.00619919, Final residual = 0.00030685, No Iterations 1
smoothSolver:  Solving for k, Initial residual = 0.0522919, Final residual = 0.00281393, No Iterations 1
bounding k, min: -0.203029 max: 90.7557 average: 0.931427
ExecutionTime = 11.39 s  ClockTime = 12 s

Time = 21

smoothSolver:  Solving for Ux, Initial residual = 0.00797142, Final residual = 0.00042923, No Iterations 2
smoothSolver:  Solving for Uy, Initial residual = 0.0383126, Final residual = 0.00131319, No Iterations 2
GAMG:  Solving for p, Initial residual = 0.0961184, Final residual = 0.00650747, No Iterations 2
time step continuity errors : sum local = 0.0180784, global = 0.00305262, cumulative = 0.0129666
smoothSolver:  Solving for omega, Initial residual = 0.00610554, Final residual = 0.000315044, No Iterations 1
smoothSolver:  Solving for k, Initial residual = 0.0532117, Final residual = 0.00359067, No Iterations 1
bounding k, min: -0.079461 max: 147.308 average: 1.43908
ExecutionTime = 11.73 s  ClockTime = 12 s

Time = 22

smoothSolver:  Solving for Ux, Initial residual = 0.00797694, Final residual = 0.000436881, No Iterations 2
smoothSolver:  Solving for Uy, Initial residual = 0.0357322, Final residual = 0.00119127, No Iterations 2
GAMG:  Solving for p, Initial residual = 0.0835085, Final residual = 0.00662786, No Iterations 2
time step continuity errors : sum local = 0.0185367, global = -0.0013317, cumulative = 0.0116349
smoothSolver:  Solving for omega, Initial residual = 0.00535011, Final residual = 0.000301809, No Iterations 1
smoothSolver:  Solving for k, Initial residual = 0.05444, Final residual = 0.00467091, No Iterations 1
bounding k, min: -0.389772 max: 221.142 average: 2.13866
ExecutionTime = 12.08 s  ClockTime = 12 s

Time = 23

smoothSolver:  Solving for Ux, Initial residual = 0.00826972, Final residual = 0.000447211, No Iterations 2
smoothSolver:  Solving for Uy, Initial residual = 0.0354837, Final residual = 0.00115703, No Iterations 2
GAMG:  Solving for p, Initial residual = 0.0669337, Final residual = 0.00368464, No Iterations 2
time step continuity errors : sum local = 0.0116984, global = 0.00129279, cumulative = 0.0129277
smoothSolver:  Solving for omega, Initial residual = 0.00552652, Final residual = 0.000327255, No Iterations 1
smoothSolver:  Solving for k, Initial residual = 0.0559537, Final residual = 0.000955697, No Iterations 2
bounding k, min: -0.291868 max: 306.964 average: 3.14653
ExecutionTime = 12.44 s  ClockTime = 13 s

Time = 24

smoothSolver:  Solving for Ux, Initial residual = 0.00808994, Final residual = 0.000450006, No Iterations 2
smoothSolver:  Solving for Uy, Initial residual = 0.0340992, Final residual = 0.00114057, No Iterations 2
GAMG:  Solving for p, Initial residual = 0.0724994, Final residual = 0.00463584, No Iterations 2
time step continuity errors : sum local = 0.0135675, global = 0.00185349, cumulative = 0.0147812
smoothSolver:  Solving for omega, Initial residual = 0.00420575, Final residual = 0.000280492, No Iterations 1
smoothSolver:  Solving for k, Initial residual = 0.0539278, Final residual = 0.00133875, No Iterations 2
bounding k, min: -0.708179 max: 399.397 average: 4.40619
ExecutionTime = 12.79 s  ClockTime = 13 s

Time = 25

smoothSolver:  Solving for Ux, Initial residual = 0.00813189, Final residual = 0.000466655, No Iterations 2
smoothSolver:  Solving for Uy, Initial residual = 0.0343363, Final residual = 0.00115484, No Iterations 2
GAMG:  Solving for p, Initial residual = 0.0679364, Final residual = 0.00396052, No Iterations 2
time step continuity errors : sum local = 0.0129309, global = 0.001757, cumulative = 0.0165382
smoothSolver:  Solving for omega, Initial residual = 0.00419879, Final residual = 0.000292221, No Iterations 1
bounding omega, min: -24.4821 max: 460160 average: 6417.87
smoothSolver:  Solving for k, Initial residual = 0.0541362, Final residual = 0.00177057, No Iterations 2
bounding k, min: -0.828348 max: 483.53 average: 5.85952
ExecutionTime = 13.15 s  ClockTime = 14 s

Time = 26

smoothSolver:  Solving for Ux, Initial residual = 0.00855501, Final residual = 0.000510978, No Iterations 2
smoothSolver:  Solving for Uy, Initial residual = 0.0364095, Final residual = 0.00122938, No Iterations 2
GAMG:  Solving for p, Initial residual = 0.08652, Final residual = 0.00752382, No Iterations 1
time step continuity errors : sum local = 0.0259645, global = 0.000654207, cumulative = 0.0171924
smoothSolver:  Solving for omega, Initial residual = 0.00646472, Final residual = 0.000474785, No Iterations 1
bounding omega, min: -4.24901 max: 492413 average: 6448.9
smoothSolver:  Solving for k, Initial residual = 0.0556357, Final residual = 0.00219971, No Iterations 2
bounding k, min: -1.1655 max: 558.802 average: 7.4591
ExecutionTime = 13.48 s  ClockTime = 14 s

Time = 27

smoothSolver:  Solving for Ux, Initial residual = 0.00860087, Final residual = 0.000534504, No Iterations 2
smoothSolver:  Solving for Uy, Initial residual = 0.0348838, Final residual = 0.00127136, No Iterations 2
GAMG:  Solving for p, Initial residual = 0.0718929, Final residual = 0.00554511, No Iterations 2
time step continuity errors : sum local = 0.0205497, global = 0.00321295, cumulative = 0.0204054
smoothSolver:  Solving for omega, Initial residual = 0.00719679, Final residual = 0.000526841, No Iterations 1
bounding omega, min: -240.05 max: 551316 average: 6481.19
smoothSolver:  Solving for k, Initial residual = 0.0572732, Final residual = 0.00258224, No Iterations 2
bounding k, min: -1.70812 max: 645.21 average: 9.18217
ExecutionTime = 13.84 s  ClockTime = 14 s

Time = 28

smoothSolver:  Solving for Ux, Initial residual = 0.00871403, Final residual = 0.000560293, No Iterations 2
smoothSolver:  Solving for Uy, Initial residual = 0.0368365, Final residual = 0.00132458, No Iterations 2
GAMG:  Solving for p, Initial residual = 0.0796992, Final residual = 0.00637547, No Iterations 2
time step continuity errors : sum local = 0.0182307, global = -0.000486706, cumulative = 0.0199186
smoothSolver:  Solving for omega, Initial residual = 0.00768184, Final residual = 0.000566224, No Iterations 1
bounding omega, min: -38.1588 max: 590531 average: 6510.64
smoothSolver:  Solving for k, Initial residual = 0.0600045, Final residual = 0.00299186, No Iterations 2
bounding k, min: -0.77693 max: 719.813 average: 11.0124
ExecutionTime = 14.2 s  ClockTime = 15 s

Time = 29

smoothSolver:  Solving for Ux, Initial residual = 0.00869157, Final residual = 0.000579573, No Iterations 2
smoothSolver:  Solving for Uy, Initial residual = 0.0365943, Final residual = 0.00139693, No Iterations 2
GAMG:  Solving for p, Initial residual = 0.0817478, Final residual = 0.00471036, No Iterations 2
time step continuity errors : sum local = 0.0129747, global = 0.000291479, cumulative = 0.0202101
smoothSolver:  Solving for omega, Initial residual = 0.00749824, Final residual = 0.000556042, No Iterations 1
bounding omega, min: -204.676 max: 604163 average: 6536.75
smoothSolver:  Solving for k, Initial residual = 0.0626865, Final residual = 0.00342625, No Iterations 2
bounding k, min: -0.715696 max: 808.161 average: 12.9423
ExecutionTime = 14.55 s  ClockTime = 15 s

Time = 30

smoothSolver:  Solving for Ux, Initial residual = 0.00876008, Final residual = 0.000612684, No Iterations 2
smoothSolver:  Solving for Uy, Initial residual = 0.0360124, Final residual = 0.0014449, No Iterations 2
GAMG:  Solving for p, Initial residual = 0.0906888, Final residual = 0.00573174, No Iterations 2
time step continuity errors : sum local = 0.0153524, global = 0.000358152, cumulative = 0.0205683
smoothSolver:  Solving for omega, Initial residual = 0.00836865, Final residual = 0.000618888, No Iterations 1
bounding omega, min: -28.7229 max: 593984 average: 6563.39
smoothSolver:  Solving for k, Initial residual = 0.0644319, Final residual = 0.00390252, No Iterations 2
bounding k, min: -2.77103 max: 953.203 average: 14.9658
ExecutionTime = 14.91 s  ClockTime = 15 s

Time = 31

smoothSolver:  Solving for Ux, Initial residual = 0.00877763, Final residual = 0.000655054, No Iterations 2
smoothSolver:  Solving for Uy, Initial residual = 0.0347771, Final residual = 0.00141112, No Iterations 2
GAMG:  Solving for p, Initial residual = 0.117288, Final residual = 0.0103023, No Iterations 1
time step continuity errors : sum local = 0.0286324, global = 0.00115498, cumulative = 0.0217233
smoothSolver:  Solving for omega, Initial residual = 0.00937832, Final residual = 0.00066323, No Iterations 1
bounding omega, min: -17.5956 max: 631749 average: 6586.38
smoothSolver:  Solving for k, Initial residual = 0.0641806, Final residual = 0.00434236, No Iterations 2
bounding k, min: -0.665448 max: 1200.58 average: 17.0735
ExecutionTime = 15.25 s  ClockTime = 16 s

Time = 32

smoothSolver:  Solving for Ux, Initial residual = 0.00884244, Final residual = 0.000700986, No Iterations 2
smoothSolver:  Solving for Uy, Initial residual = 0.0328431, Final residual = 0.00144978, No Iterations 2
GAMG:  Solving for p, Initial residual = 0.0927236, Final residual = 0.0083946, No Iterations 2
time step continuity errors : sum local = 0.0225871, global = 0.00296328, cumulative = 0.0246865
smoothSolver:  Solving for omega, Initial residual = 0.00970973, Final residual = 0.000717039, No Iterations 1
bounding omega, min: -95.2227 max: 684572 average: 6611.27
smoothSolver:  Solving for k, Initial residual = 0.063505, Final residual = 0.00467638, No Iterations 2
bounding k, min: -1.60656 max: 1446.74 average: 19.2613
ExecutionTime = 15.6 s  ClockTime = 16 s

Time = 33

smoothSolver:  Solving for Ux, Initial residual = 0.00908763, Final residual = 0.000761387, No Iterations 2
smoothSolver:  Solving for Uy, Initial residual = 0.0363153, Final residual = 0.00152708, No Iterations 2
GAMG:  Solving for p, Initial residual = 0.0895329, Final residual = 0.00590506, No Iterations 2
time step continuity errors : sum local = 0.0153198, global = -0.00114315, cumulative = 0.0235434
smoothSolver:  Solving for omega, Initial residual = 0.0111846, Final residual = 0.000788839, No Iterations 1
smoothSolver:  Solving for k, Initial residual = 0.0603794, Final residual = 0.00482478, No Iterations 2
bounding k, min: -2.38064 max: 1680.5 average: 21.5277
ExecutionTime = 15.94 s  ClockTime = 16 s

Time = 34

smoothSolver:  Solving for Ux, Initial residual = 0.00899755, Final residual = 0.000791774, No Iterations 2
smoothSolver:  Solving for Uy, Initial residual = 0.0336284, Final residual = 0.001477, No Iterations 2
GAMG:  Solving for p, Initial residual = 0.0808044, Final residual = 0.00566319, No Iterations 2
time step continuity errors : sum local = 0.0159451, global = 0.00129537, cumulative = 0.0248388
smoothSolver:  Solving for omega, Initial residual = 0.0101598, Final residual = 0.000757375, No Iterations 1
bounding omega, min: -3054.51 max: 737013 average: 6659.8
smoothSolver:  Solving for k, Initial residual = 0.0579568, Final residual = 0.00489693, No Iterations 2
bounding k, min: -1.16416 max: 1895.44 average: 23.8744
ExecutionTime = 16.3 s  ClockTime = 17 s

Time = 35

smoothSolver:  Solving for Ux, Initial residual = 0.00905307, Final residual = 0.000843438, No Iterations 2
smoothSolver:  Solving for Uy, Initial residual = 0.0326419, Final residual = 0.00147032, No Iterations 2
GAMG:  Solving for p, Initial residual = 0.0799555, Final residual = 0.00508867, No Iterations 2
time step continuity errors : sum local = 0.0152049, global = -0.000305604, cumulative = 0.0245332
smoothSolver:  Solving for omega, Initial residual = 0.011674, Final residual = 0.000824869, No Iterations 1
smoothSolver:  Solving for k, Initial residual = 0.0547284, Final residual = 0.00486458, No Iterations 2
bounding k, min: -2.12437 max: 2090.18 average: 26.291
ExecutionTime = 16.66 s  ClockTime = 17 s

Time = 36

smoothSolver:  Solving for Ux, Initial residual = 0.00907987, Final residual = 0.000890381, No Iterations 2
smoothSolver:  Solving for Uy, Initial residual = 0.031661, Final residual = 0.00143839, No Iterations 2
GAMG:  Solving for p, Initial residual = 0.0985892, Final residual = 0.00794825, No Iterations 1
time step continuity errors : sum local = 0.0295136, global = -0.000511713, cumulative = 0.0240215
smoothSolver:  Solving for omega, Initial residual = 0.0116113, Final residual = 0.000870206, No Iterations 1
bounding omega, min: -784.986 max: 705682 average: 6708.96
smoothSolver:  Solving for k, Initial residual = 0.0525559, Final residual = 0.00478604, No Iterations 2
bounding k, min: -0.904768 max: 2326.66 average: 28.7839
ExecutionTime = 16.99 s  ClockTime = 17 s

Time = 37

smoothSolver:  Solving for Ux, Initial residual = 0.00910702, Final residual = 0.000425819, No Iterations 3
smoothSolver:  Solving for Uy, Initial residual = 0.0298865, Final residual = 0.00144654, No Iterations 2
GAMG:  Solving for p, Initial residual = 0.1096, Final residual = 0.00915159, No Iterations 2
time step continuity errors : sum local = 0.0220723, global = 0.00185234, cumulative = 0.0258738
smoothSolver:  Solving for omega, Initial residual = 0.0121263, Final residual = 0.000911579, No Iterations 1
bounding omega, min: -270.987 max: 747973 average: 6730.25
smoothSolver:  Solving for k, Initial residual = 0.0489163, Final residual = 0.00456728, No Iterations 2
bounding k, min: -1.10665 max: 2524.78 average: 31.3186
ExecutionTime = 17.36 s  ClockTime = 18 s

Time = 38

smoothSolver:  Solving for Ux, Initial residual = 0.00913713, Final residual = 0.000457133, No Iterations 3
smoothSolver:  Solving for Uy, Initial residual = 0.0328578, Final residual = 0.00154056, No Iterations 2
GAMG:  Solving for p, Initial residual = 0.0958346, Final residual = 0.00606296, No Iterations 2
time step continuity errors : sum local = 0.0156342, global = -0.00172442, cumulative = 0.0241494
smoothSolver:  Solving for omega, Initial residual = 0.0113285, Final residual = 0.000923544, No Iterations 1
bounding omega, min: -259.478 max: 795108 average: 6745.79
smoothSolver:  Solving for k, Initial residual = 0.046379, Final residual = 0.00433381, No Iterations 2
bounding k, min: -3.30411 max: 2735.46 average: 33.8938
ExecutionTime = 17.71 s  ClockTime = 18 s

Time = 39

smoothSolver:  Solving for Ux, Initial residual = 0.00915279, Final residual = 0.000483965, No Iterations 3
smoothSolver:  Solving for Uy, Initial residual = 0.0319815, Final residual = 0.00151697, No Iterations 2
GAMG:  Solving for p, Initial residual = 0.0873343, Final residual = 0.00446297, No Iterations 2
time step continuity errors : sum local = 0.0131054, global = 0.00134116, cumulative = 0.0254905
smoothSolver:  Solving for omega, Initial residual = 0.0113485, Final residual = 0.000961323, No Iterations 1
bounding omega, min: -1890.14 max: 790407 average: 6756.78
smoothSolver:  Solving for k, Initial residual = 0.0426473, Final residual = 0.00406106, No Iterations 2
bounding k, min: -2.35843 max: 2909.62 average: 36.4669
ExecutionTime = 18.08 s  ClockTime = 18 s

Time = 40

smoothSolver:  Solving for Ux, Initial residual = 0.00915217, Final residual = 0.000517251, No Iterations 3
smoothSolver:  Solving for Uy, Initial residual = 0.03125, Final residual = 0.00149492, No Iterations 2
GAMG:  Solving for p, Initial residual = 0.0895051, Final residual = 0.00462095, No Iterations 2
time step continuity errors : sum local = 0.0125037, global = -0.000431238, cumulative = 0.0250593
smoothSolver:  Solving for omega, Initial residual = 0.0108293, Final residual = 0.00100483, No Iterations 1
bounding omega, min: -1359.74 max: 755647 average: 6762.51
smoothSolver:  Solving for k, Initial residual = 0.0404599, Final residual = 0.00374942, No Iterations 2
bounding k, min: -1.57719 max: 3093.99 average: 39.0012
ExecutionTime = 18.43 s  ClockTime = 19 s

Time = 41

smoothSolver:  Solving for Ux, Initial residual = 0.00909407, Final residual = 0.000550302, No Iterations 3
smoothSolver:  Solving for Uy, Initial residual = 0.0313453, Final residual = 0.00149743, No Iterations 2
GAMG:  Solving for p, Initial residual = 0.0852691, Final residual = 0.0049533, No Iterations 2
time step continuity errors : sum local = 0.0136044, global = 0.00105607, cumulative = 0.0261154
smoothSolver:  Solving for omega, Initial residual = 0.0114695, Final residual = 0.00111399, No Iterations 1
bounding omega, min: -21962 max: 714004 average: 6766.55
smoothSolver:  Solving for k, Initial residual = 0.0384733, Final residual = 0.00340899, No Iterations 2
bounding k, min: -1.98539 max: 3254.51 average: 41.4963
ExecutionTime = 18.8 s  ClockTime = 19 s

Time = 42

smoothSolver:  Solving for Ux, Initial residual = 0.00918878, Final residual = 0.000576862, No Iterations 3
smoothSolver:  Solving for Uy, Initial residual = 0.0313923, Final residual = 0.00149723, No Iterations 2
GAMG:  Solving for p, Initial residual = 0.0925611, Final residual = 0.0051799, No Iterations 2
time step continuity errors : sum local = 0.0143845, global = -5.5984e-05, cumulative = 0.0260594
smoothSolver:  Solving for omega, Initial residual = 0.0110372, Final residual = 0.000320942, No Iterations 2
bounding omega, min: -1072.21 max: 670247 average: 6751.76
smoothSolver:  Solving for k, Initial residual = 0.0371069, Final residual = 0.00313548, No Iterations 2
bounding k, min: -1.8418 max: 3432.68 average: 43.9882
ExecutionTime = 19.17 s  ClockTime = 20 s

Time = 43

smoothSolver:  Solving for Ux, Initial residual = 0.00927398, Final residual = 0.000613691, No Iterations 3
smoothSolver:  Solving for Uy, Initial residual = 0.031701, Final residual = 0.00151143, No Iterations 2
GAMG:  Solving for p, Initial residual = 0.0747028, Final residual = 0.00395088, No Iterations 2
time step continuity errors : sum local = 0.0135429, global = 0.00131801, cumulative = 0.0273774
smoothSolver:  Solving for omega, Initial residual = 0.00839571, Final residual = 0.000301111, No Iterations 2
bounding omega, min: -14032.5 max: 683606 average: 6743.62
smoothSolver:  Solving for k, Initial residual = 0.0359614, Final residual = 0.00292722, No Iterations 2
bounding k, min: -2.85074 max: 3589.6 average: 46.4748
ExecutionTime = 19.54 s  ClockTime = 20 s

Time = 44

smoothSolver:  Solving for Ux, Initial residual = 0.00928838, Final residual = 0.000654245, No Iterations 3
smoothSolver:  Solving for Uy, Initial residual = 0.0319169, Final residual = 0.00152932, No Iterations 2
GAMG:  Solving for p, Initial residual = 0.0695362, Final residual = 0.00393119, No Iterations 2
time step continuity errors : sum local = 0.015313, global = 0.000490157, cumulative = 0.0278676
smoothSolver:  Solving for omega, Initial residual = 0.00732224, Final residual = 0.000309799, No Iterations 2
bounding omega, min: -1465.72 max: 677180 average: 6726.85
smoothSolver:  Solving for k, Initial residual = 0.0342596, Final residual = 0.00279389, No Iterations 2
bounding k, min: -3.34147 max: 3730.32 average: 48.9193
ExecutionTime = 19.91 s  ClockTime = 20 s

Time = 45

smoothSolver:  Solving for Ux, Initial residual = 0.00923326, Final residual = 0.000692052, No Iterations 3
smoothSolver:  Solving for Uy, Initial residual = 0.0320547, Final residual = 0.0015445, No Iterations 2
GAMG:  Solving for p, Initial residual = 0.0572932, Final residual = 0.00336367, No Iterations 2
time step continuity errors : sum local = 0.0151526, global = 0.00117965, cumulative = 0.0290472
smoothSolver:  Solving for omega, Initial residual = 0.00604065, Final residual = 0.000313919, No Iterations 2
bounding omega, min: -8722.44 max: 695627 average: 6716.48
smoothSolver:  Solving for k, Initial residual = 0.0322177, Final residual = 0.00272498, No Iterations 2
bounding k, min: -6.05777 max: 4064 average: 51.2738
ExecutionTime = 20.29 s  ClockTime = 21 s

Time = 46

smoothSolver:  Solving for Ux, Initial residual = 0.00914312, Final residual = 0.000724135, No Iterations 3
smoothSolver:  Solving for Uy, Initial residual = 0.0316692, Final residual = 0.00154074, No Iterations 2
GAMG:  Solving for p, Initial residual = 0.0512561, Final residual = 0.00330137, No Iterations 2
time step continuity errors : sum local = 0.0156494, global = 0.000796683, cumulative = 0.0298439
smoothSolver:  Solving for omega, Initial residual = 0.00559187, Final residual = 0.000326339, No Iterations 2
bounding omega, min: -22058.3 max: 713493 average: 6704.89
smoothSolver:  Solving for k, Initial residual = 0.0296338, Final residual = 0.00265475, No Iterations 2
bounding k, min: -2.18953 max: 4615.41 average: 53.5186
ExecutionTime = 20.65 s  ClockTime = 21 s

Time = 47

smoothSolver:  Solving for Ux, Initial residual = 0.00904048, Final residual = 0.000751091, No Iterations 3
smoothSolver:  Solving for Uy, Initial residual = 0.0312488, Final residual = 0.00154489, No Iterations 2
GAMG:  Solving for p, Initial residual = 0.0516966, Final residual = 0.00341629, No Iterations 2
time step continuity errors : sum local = 0.0161773, global = 0.00086698, cumulative = 0.0307109
smoothSolver:  Solving for omega, Initial residual = 0.00533907, Final residual = 0.000347056, No Iterations 2
bounding omega, min: -32189.1 max: 2.13002e+06 average: 6699.55
smoothSolver:  Solving for k, Initial residual = 0.0271963, Final residual = 0.00255015, No Iterations 2
bounding k, min: -4.42601 max: 4704.15 average: 55.6359
ExecutionTime = 21.01 s  ClockTime = 21 s

Time = 48

smoothSolver:  Solving for Ux, Initial residual = 0.00889979, Final residual = 0.000769382, No Iterations 3
smoothSolver:  Solving for Uy, Initial residual = 0.0305899, Final residual = 0.00154406, No Iterations 2
GAMG:  Solving for p, Initial residual = 0.0516226, Final residual = 0.00337334, No Iterations 2
time step continuity errors : sum local = 0.0158977, global = 0.000712998, cumulative = 0.0314239
smoothSolver:  Solving for omega, Initial residual = 0.00760729, Final residual = 0.000358604, No Iterations 2
bounding omega, min: -3994.46 max: 747826 average: 6676.15
smoothSolver:  Solving for k, Initial residual = 0.0247793, Final residual = 0.00241977, No Iterations 2
bounding k, min: -5.09955 max: 4621.7 average: 57.6424
ExecutionTime = 21.39 s  ClockTime = 22 s

Time = 49

smoothSolver:  Solving for Ux, Initial residual = 0.00875065, Final residual = 0.000780436, No Iterations 3
smoothSolver:  Solving for Uy, Initial residual = 0.0298729, Final residual = 0.00153723, No Iterations 2
GAMG:  Solving for p, Initial residual = 0.0531442, Final residual = 0.00339013, No Iterations 2
time step continuity errors : sum local = 0.0156292, global = 0.000493732, cumulative = 0.0319176
smoothSolver:  Solving for omega, Initial residual = 0.00439074, Final residual = 0.000363975, No Iterations 2
bounding omega, min: -43649.3 max: 910327 average: 6666.5
smoothSolver:  Solving for k, Initial residual = 0.0227689, Final residual = 0.000799669, No Iterations 3
bounding k, min: -6.85609 max: 4487.66 average: 59.6515
ExecutionTime = 21.76 s  ClockTime = 22 s

Time = 50

smoothSolver:  Solving for Ux, Initial residual = 0.00861385, Final residual = 0.000788751, No Iterations 3
smoothSolver:  Solving for Uy, Initial residual = 0.0292642, Final residual = 0.00153997, No Iterations 2
GAMG:  Solving for p, Initial residual = 0.0591839, Final residual = 0.00343186, No Iterations 2
time step continuity errors : sum local = 0.0144721, global = 0.000299548, cumulative = 0.0322171
smoothSolver:  Solving for omega, Initial residual = 0.00482836, Final residual = 0.000368314, No Iterations 2
bounding omega, min: -8910.11 max: 780119 average: 6647.44
smoothSolver:  Solving for k, Initial residual = 0.0209399, Final residual = 0.00075698, No Iterations 3
bounding k, min: -9.3889 max: 4340.1 average: 61.5619
ExecutionTime = 22.13 s  ClockTime = 23 s

Time = 51

smoothSolver:  Solving for Ux, Initial residual = 0.0084909, Final residual = 0.000792557, No Iterations 3
smoothSolver:  Solving for Uy, Initial residual = 0.0285558, Final residual = 0.00151607, No Iterations 2
GAMG:  Solving for p, Initial residual = 0.0634174, Final residual = 0.00344178, No Iterations 2
time step continuity errors : sum local = 0.0134679, global = 0.000169515, cumulative = 0.0323867
smoothSolver:  Solving for omega, Initial residual = 0.00448851, Final residual = 0.000374712, No Iterations 2
bounding omega, min: -35247.7 max: 1.93202e+06 average: 6644.61
smoothSolver:  Solving for k, Initial residual = 0.019377, Final residual = 0.000713238, No Iterations 3
bounding k, min: -8.14928 max: 4410.11 average: 63.3746
ExecutionTime = 22.49 s  ClockTime = 23 s

Time = 52

smoothSolver:  Solving for Ux, Initial residual = 0.00839845, Final residual = 0.000795107, No Iterations 3
smoothSolver:  Solving for Uy, Initial residual = 0.0280372, Final residual = 0.00149516, No Iterations 2
GAMG:  Solving for p, Initial residual = 0.0692757, Final residual = 0.00354195, No Iterations 2
time step continuity errors : sum local = 0.0132433, global = 8.85092e-05, cumulative = 0.0324752
smoothSolver:  Solving for omega, Initial residual = 0.0111784, Final residual = 0.0010855, No Iterations 1
bounding omega, min: -2827.01 max: 824888 average: 6637.07
smoothSolver:  Solving for k, Initial residual = 0.0180048, Final residual = 0.000667188, No Iterations 3
bounding k, min: -9.67268 max: 4476.87 average: 65.0666
ExecutionTime = 22.85 s  ClockTime = 23 s

Time = 53

smoothSolver:  Solving for Ux, Initial residual = 0.00828956, Final residual = 0.000789001, No Iterations 3
smoothSolver:  Solving for Uy, Initial residual = 0.0275247, Final residual = 0.0014712, No Iterations 2
GAMG:  Solving for p, Initial residual = 0.0705993, Final residual = 0.00317804, No Iterations 2
time step continuity errors : sum local = 0.0119676, global = 6.35546e-05, cumulative = 0.0325387
smoothSolver:  Solving for omega, Initial residual = 0.00522998, Final residual = 0.000395302, No Iterations 2
bounding omega, min: -6476.84 max: 825612 average: 6615.44
smoothSolver:  Solving for k, Initial residual = 0.0168914, Final residual = 0.000631778, No Iterations 3
bounding k, min: -7.85225 max: 4544.87 average: 66.6734
ExecutionTime = 23.24 s  ClockTime = 24 s

Time = 54

smoothSolver:  Solving for Ux, Initial residual = 0.00821991, Final residual = 0.00078796, No Iterations 3
smoothSolver:  Solving for Uy, Initial residual = 0.0270457, Final residual = 0.00143969, No Iterations 2
GAMG:  Solving for p, Initial residual = 0.077848, Final residual = 0.00714325, No Iterations 1
time step continuity errors : sum local = 0.0264203, global = 2.6752e-05, cumulative = 0.0325655
smoothSolver:  Solving for omega, Initial residual = 0.00360375, Final residual = 0.000139705, No Iterations 3
bounding omega, min: -1725.14 max: 840301 average: 6596.42
smoothSolver:  Solving for k, Initial residual = 0.0158691, Final residual = 0.000601647, No Iterations 3
bounding k, min: -10.3721 max: 4594.03 average: 68.226
ExecutionTime = 23.58 s  ClockTime = 24 s

Time = 55

smoothSolver:  Solving for Ux, Initial residual = 0.00812987, Final residual = 0.000782877, No Iterations 3
smoothSolver:  Solving for Uy, Initial residual = 0.0261284, Final residual = 0.00140871, No Iterations 2
GAMG:  Solving for p, Initial residual = 0.0776652, Final residual = 0.00434378, No Iterations 2
time step continuity errors : sum local = 0.0164437, global = -0.000195766, cumulative = 0.0323697
smoothSolver:  Solving for omega, Initial residual = 0.00333842, Final residual = 0.000133238, No Iterations 3
bounding omega, min: -1075.87 max: 854709 average: 6579.52
smoothSolver:  Solving for k, Initial residual = 0.0149802, Final residual = 0.000573146, No Iterations 3
bounding k, min: -9.08376 max: 4632.83 average: 69.7349
ExecutionTime = 23.95 s  ClockTime = 24 s

Time = 56

smoothSolver:  Solving for Ux, Initial residual = 0.00809907, Final residual = 0.000783399, No Iterations 3
smoothSolver:  Solving for Uy, Initial residual = 0.0265852, Final residual = 0.00139153, No Iterations 2
GAMG:  Solving for p, Initial residual = 0.0679423, Final residual = 0.0059084, No Iterations 1
time step continuity errors : sum local = 0.0246647, global = -4.00769e-05, cumulative = 0.0323296
smoothSolver:  Solving for omega, Initial residual = 0.00332859, Final residual = 0.000133418, No Iterations 3
bounding omega, min: -49327 max: 1.32316e+06 average: 6569.98
smoothSolver:  Solving for k, Initial residual = 0.0142035, Final residual = 0.00054732, No Iterations 3
bounding k, min: -2.81728 max: 4664.75 average: 71.1852
ExecutionTime = 24.31 s  ClockTime = 25 s

Time = 57

smoothSolver:  Solving for Ux, Initial residual = 0.00800146, Final residual = 0.000774926, No Iterations 3
smoothSolver:  Solving for Uy, Initial residual = 0.025791, Final residual = 0.00137469, No Iterations 2
GAMG:  Solving for p, Initial residual = 0.0667305, Final residual = 0.00320992, No Iterations 2
time step continuity errors : sum local = 0.0153252, global = -0.000511766, cumulative = 0.0318179
smoothSolver:  Solving for omega, Initial residual = 0.00410753, Final residual = 0.000340519, No Iterations 2
bounding omega, min: -1191.68 max: 882210 average: 6549.43
smoothSolver:  Solving for k, Initial residual = 0.0135458, Final residual = 0.000523724, No Iterations 3
bounding k, min: -5.14396 max: 4693.29 average: 72.5727
ExecutionTime = 24.68 s  ClockTime = 25 s

Time = 58

smoothSolver:  Solving for Ux, Initial residual = 0.00795699, Final residual = 0.000768841, No Iterations 3
smoothSolver:  Solving for Uy, Initial residual = 0.0256991, Final residual = 0.00134245, No Iterations 2
GAMG:  Solving for p, Initial residual = 0.0809545, Final residual = 0.00625585, No Iterations 1
time step continuity errors : sum local = 0.024307, global = 0.000794494, cumulative = 0.0326124
smoothSolver:  Solving for omega, Initial residual = 0.00298735, Final residual = 0.000123744, No Iterations 3
bounding omega, min: -1187.97 max: 895253 average: 6531.8
smoothSolver:  Solving for k, Initial residual = 0.0129728, Final residual = 0.000504625, No Iterations 3
bounding k, min: -10.7631 max: 4709.49 average: 73.9152
ExecutionTime = 25.03 s  ClockTime = 25 s

Time = 59

smoothSolver:  Solving for Ux, Initial residual = 0.00785224, Final residual = 0.000757431, No Iterations 3
smoothSolver:  Solving for Uy, Initial residual = 0.0249764, Final residual = 0.00133222, No Iterations 2
GAMG:  Solving for p, Initial residual = 0.0895225, Final residual = 0.00436752, No Iterations 2
time step continuity errors : sum local = 0.0155262, global = -0.00114117, cumulative = 0.0314712
smoothSolver:  Solving for omega, Initial residual = 0.00277456, Final residual = 0.000118399, No Iterations 3
bounding omega, min: -2413.33 max: 907812 average: 6516.95
smoothSolver:  Solving for k, Initial residual = 0.0124788, Final residual = 0.000486897, No Iterations 3
bounding k, min: -4.0785 max: 4722.97 average: 75.2011
ExecutionTime = 25.4 s  ClockTime = 26 s

Time = 60

smoothSolver:  Solving for Ux, Initial residual = 0.00780592, Final residual = 0.000754993, No Iterations 3
smoothSolver:  Solving for Uy, Initial residual = 0.0254732, Final residual = 0.00133597, No Iterations 2
GAMG:  Solving for p, Initial residual = 0.0791499, Final residual = 0.00703723, No Iterations 1
time step continuity errors : sum local = 0.0249802, global = 2.5854e-05, cumulative = 0.0314971
smoothSolver:  Solving for omega, Initial residual = 0.00290666, Final residual = 0.00012218, No Iterations 3
bounding omega, min: -2289.89 max: 919826 average: 6500.41
smoothSolver:  Solving for k, Initial residual = 0.0120172, Final residual = 0.000472398, No Iterations 3
bounding k, min: -4.11034 max: 4723.7 average: 76.4427
ExecutionTime = 25.73 s  ClockTime = 26 s

Time = 61

smoothSolver:  Solving for Ux, Initial residual = 0.00771796, Final residual = 0.000744384, No Iterations 3
smoothSolver:  Solving for Uy, Initial residual = 0.0247857, Final residual = 0.00132089, No Iterations 2
GAMG:  Solving for p, Initial residual = 0.0806146, Final residual = 0.00395702, No Iterations 2
time step continuity errors : sum local = 0.0156327, global = -0.00136949, cumulative = 0.0301276
smoothSolver:  Solving for omega, Initial residual = 0.00271924, Final residual = 0.000118051, No Iterations 3
bounding omega, min: -2490.1 max: 931682 average: 6485.41
smoothSolver:  Solving for k, Initial residual = 0.0116148, Final residual = 0.000458706, No Iterations 3
bounding k, min: -3.05051 max: 4729.64 average: 77.634
ExecutionTime = 26.1 s  ClockTime = 27 s

Time = 62

smoothSolver:  Solving for Ux, Initial residual = 0.00772359, Final residual = 0.000740042, No Iterations 3
smoothSolver:  Solving for Uy, Initial residual = 0.0250354, Final residual = 0.00133029, No Iterations 2
GAMG:  Solving for p, Initial residual = 0.0713271, Final residual = 0.00631102, No Iterations 1
time step continuity errors : sum local = 0.0254273, global = -9.09949e-05, cumulative = 0.0300366
smoothSolver:  Solving for omega, Initial residual = 0.00264672, Final residual = 0.000116236, No Iterations 3
bounding omega, min: -683.67 max: 943191 average: 6471.69
smoothSolver:  Solving for k, Initial residual = 0.0112346, Final residual = 0.000447367, No Iterations 3
bounding k, min: -4.28668 max: 4720.02 average: 78.7654
ExecutionTime = 26.47 s  ClockTime = 27 s

Time = 63

smoothSolver:  Solving for Ux, Initial residual = 0.00759559, Final residual = 0.000730084, No Iterations 3
smoothSolver:  Solving for Uy, Initial residual = 0.0244752, Final residual = 0.00131514, No Iterations 2
GAMG:  Solving for p, Initial residual = 0.0486005, Final residual = 0.00238118, No Iterations 2
time step continuity errors : sum local = 0.0154609, global = -0.000903182, cumulative = 0.0291334
smoothSolver:  Solving for omega, Initial residual = 0.00256295, Final residual = 0.000113102, No Iterations 3
bounding omega, min: -869.2 max: 954341 average: 6458.24
smoothSolver:  Solving for k, Initial residual = 0.0108962, Final residual = 0.000436892, No Iterations 3
bounding k, min: -5.23995 max: 4713.18 average: 79.8492
ExecutionTime = 26.87 s  ClockTime = 27 s

Time = 64

smoothSolver:  Solving for Ux, Initial residual = 0.00753908, Final residual = 0.000724929, No Iterations 3
smoothSolver:  Solving for Uy, Initial residual = 0.0247945, Final residual = 0.00131925, No Iterations 2
GAMG:  Solving for p, Initial residual = 0.0485635, Final residual = 0.00413105, No Iterations 1
time step continuity errors : sum local = 0.0258418, global = -0.000427839, cumulative = 0.0287055
smoothSolver:  Solving for omega, Initial residual = 0.0025175, Final residual = 0.0001119, No Iterations 3
bounding omega, min: -1163.53 max: 965116 average: 6445.18
smoothSolver:  Solving for k, Initial residual = 0.0105729, Final residual = 0.000426866, No Iterations 3
bounding k, min: -3.42161 max: 4696.24 average: 80.8725
ExecutionTime = 27.25 s  ClockTime = 28 s

Time = 65

smoothSolver:  Solving for Ux, Initial residual = 0.00747292, Final residual = 0.000715128, No Iterations 3
smoothSolver:  Solving for Uy, Initial residual = 0.0242121, Final residual = 0.00131087, No Iterations 2
GAMG:  Solving for p, Initial residual = 0.057633, Final residual = 0.00316414, No Iterations 2
time step continuity errors : sum local = 0.0162305, global = -0.000614314, cumulative = 0.0280912
smoothSolver:  Solving for omega, Initial residual = 0.00245403, Final residual = 0.000109292, No Iterations 3
bounding omega, min: -1604.43 max: 975298 average: 6432.59
smoothSolver:  Solving for k, Initial residual = 0.0102677, Final residual = 0.000416675, No Iterations 3
bounding k, min: -6.07796 max: 4680.82 average: 81.8426
ExecutionTime = 27.62 s  ClockTime = 28 s

Time = 66

smoothSolver:  Solving for Ux, Initial residual = 0.00741261, Final residual = 0.000709182, No Iterations 3
smoothSolver:  Solving for Uy, Initial residual = 0.0245115, Final residual = 0.00131449, No Iterations 2
GAMG:  Solving for p, Initial residual = 0.0416802, Final residual = 0.00377776, No Iterations 1
time step continuity errors : sum local = 0.0261595, global = -0.000181821, cumulative = 0.0279094
smoothSolver:  Solving for omega, Initial residual = 0.00239652, Final residual = 0.00010704, No Iterations 3
bounding omega, min: -4213.26 max: 985114 average: 6420.02
smoothSolver:  Solving for k, Initial residual = 0.00998889, Final residual = 0.000406888, No Iterations 3
bounding k, min: -4.44777 max: 4657.5 average: 82.7653
ExecutionTime = 28 s  ClockTime = 28 s

Time = 67

smoothSolver:  Solving for Ux, Initial residual = 0.00733916, Final residual = 0.00069934, No Iterations 3
smoothSolver:  Solving for Uy, Initial residual = 0.02406, Final residual = 0.00130521, No Iterations 2
GAMG:  Solving for p, Initial residual = 0.0770223, Final residual = 0.00413331, No Iterations 2
time step continuity errors : sum local = 0.0151017, global = -0.000555931, cumulative = 0.0273535
smoothSolver:  Solving for omega, Initial residual = 0.00237777, Final residual = 0.000105929, No Iterations 3
bounding omega, min: -1064.63 max: 994580 average: 6408
smoothSolver:  Solving for k, Initial residual = 0.00975154, Final residual = 0.000398602, No Iterations 3
bounding k, min: -5.72497 max: 4636.34 average: 83.6377
ExecutionTime = 28.4 s  ClockTime = 29 s

Time = 68

smoothSolver:  Solving for Ux, Initial residual = 0.00728712, Final residual = 0.000692442, No Iterations 3
smoothSolver:  Solving for Uy, Initial residual = 0.0242667, Final residual = 0.00130331, No Iterations 2
GAMG:  Solving for p, Initial residual = 0.0807441, Final residual = 0.00783906, No Iterations 1
time step continuity errors : sum local = 0.0254804, global = 0.000185842, cumulative = 0.0275393
smoothSolver:  Solving for omega, Initial residual = 0.00228778, Final residual = 0.00010391, No Iterations 3
bounding omega, min: -1378.54 max: 1.00376e+06 average: 6396.5
smoothSolver:  Solving for k, Initial residual = 0.00950524, Final residual = 0.000390229, No Iterations 3
bounding k, min: -4.16893 max: 4610.59 average: 84.4617
ExecutionTime = 28.77 s  ClockTime = 29 s

Time = 69

smoothSolver:  Solving for Ux, Initial residual = 0.00721584, Final residual = 0.000682801, No Iterations 3
smoothSolver:  Solving for Uy, Initial residual = 0.0238134, Final residual = 0.00128806, No Iterations 2
GAMG:  Solving for p, Initial residual = 0.0921045, Final residual = 0.00505767, No Iterations 2
time step continuity errors : sum local = 0.0152514, global = -0.000489636, cumulative = 0.0270497
smoothSolver:  Solving for omega, Initial residual = 0.00224962, Final residual = 0.000102467, No Iterations 3
bounding omega, min: -1236.09 max: 1.01252e+06 average: 6385.37
smoothSolver:  Solving for k, Initial residual = 0.00930335, Final residual = 0.00038224, No Iterations 3
bounding k, min: -5.62048 max: 4582.5 average: 85.2413
ExecutionTime = 29.17 s  ClockTime = 30 s

Time = 70

smoothSolver:  Solving for Ux, Initial residual = 0.00717022, Final residual = 0.000676927, No Iterations 3
smoothSolver:  Solving for Uy, Initial residual = 0.0240153, Final residual = 0.0012918, No Iterations 2
GAMG:  Solving for p, Initial residual = 0.0885046, Final residual = 0.0083497, No Iterations 1
time step continuity errors : sum local = 0.0242691, global = -0.000278142, cumulative = 0.0267715
smoothSolver:  Solving for omega, Initial residual = 0.00219408, Final residual = 0.000100528, No Iterations 3
bounding omega, min: -299.774 max: 1.02089e+06 average: 6373.94
smoothSolver:  Solving for k, Initial residual = 0.0090981, Final residual = 0.000375077, No Iterations 3
bounding k, min: -6.79958 max: 4554.01 average: 85.9745
ExecutionTime = 29.55 s  ClockTime = 30 s

Time = 71

smoothSolver:  Solving for Ux, Initial residual = 0.00708824, Final residual = 0.000667587, No Iterations 3
smoothSolver:  Solving for Uy, Initial residual = 0.0235378, Final residual = 0.00127766, No Iterations 2
GAMG:  Solving for p, Initial residual = 0.096358, Final residual = 0.00489355, No Iterations 2
time step continuity errors : sum local = 0.0141473, global = -0.000187193, cumulative = 0.0265843
smoothSolver:  Solving for omega, Initial residual = 0.00214929, Final residual = 9.91788e-05, No Iterations 3
bounding omega, min: -851.553 max: 1.02891e+06 average: 6363.41
smoothSolver:  Solving for k, Initial residual = 0.00889778, Final residual = 0.000368067, No Iterations 3
bounding k, min: -4.72675 max: 4534.25 average: 86.6673
ExecutionTime = 29.96 s  ClockTime = 30 s

Time = 72

smoothSolver:  Solving for Ux, Initial residual = 0.00703289, Final residual = 0.000661048, No Iterations 3
smoothSolver:  Solving for Uy, Initial residual = 0.0236841, Final residual = 0.00127575, No Iterations 2
GAMG:  Solving for p, Initial residual = 0.0927308, Final residual = 0.00849311, No Iterations 1
time step continuity errors : sum local = 0.0247124, global = -0.000537034, cumulative = 0.0260473
smoothSolver:  Solving for omega, Initial residual = 0.00210759, Final residual = 9.76024e-05, No Iterations 3
bounding omega, min: -750.366 max: 1.03669e+06 average: 6352.43
smoothSolver:  Solving for k, Initial residual = 0.00871701, Final residual = 0.000361437, No Iterations 3
bounding k, min: -2.46784 max: 4517.68 average: 87.3197
ExecutionTime = 30.31 s  ClockTime = 31 s

Time = 73

smoothSolver:  Solving for Ux, Initial residual = 0.00697011, Final residual = 0.000652878, No Iterations 3
smoothSolver:  Solving for Uy, Initial residual = 0.0232044, Final residual = 0.00126089, No Iterations 2
GAMG:  Solving for p, Initial residual = 0.0999699, Final residual = 0.00515351, No Iterations 2
time step continuity errors : sum local = 0.0147956, global = 0.000356067, cumulative = 0.0264034
smoothSolver:  Solving for omega, Initial residual = 0.00207167, Final residual = 9.63691e-05, No Iterations 3
bounding omega, min: -318.97 max: 1.04404e+06 average: 6342.13
smoothSolver:  Solving for k, Initial residual = 0.00854453, Final residual = 0.000354988, No Iterations 3
bounding k, min: -12.4476 max: 4501.81 average: 87.937
ExecutionTime = 30.69 s  ClockTime = 31 s

Time = 74

smoothSolver:  Solving for Ux, Initial residual = 0.00690258, Final residual = 0.000645872, No Iterations 3
smoothSolver:  Solving for Uy, Initial residual = 0.0231815, Final residual = 0.00125663, No Iterations 2
GAMG:  Solving for p, Initial residual = 0.0945471, Final residual = 0.00846537, No Iterations 1
time step continuity errors : sum local = 0.0244814, global = -0.000292089, cumulative = 0.0261113
smoothSolver:  Solving for omega, Initial residual = 0.00197721, Final residual = 9.20966e-05, No Iterations 3
bounding omega, min: -1197.91 max: 1.05108e+06 average: 6331.17
smoothSolver:  Solving for k, Initial residual = 0.00837089, Final residual = 0.000348247, No Iterations 3
bounding k, min: -3.0704 max: 4484.99 average: 88.5205
ExecutionTime = 31.06 s  ClockTime = 32 s

Time = 75

smoothSolver:  Solving for Ux, Initial residual = 0.00684996, Final residual = 0.000639558, No Iterations 3
smoothSolver:  Solving for Uy, Initial residual = 0.0228182, Final residual = 0.00124998, No Iterations 2
GAMG:  Solving for p, Initial residual = 0.0958525, Final residual = 0.00449853, No Iterations 2
time step continuity errors : sum local = 0.0138756, global = 0.000179558, cumulative = 0.0262908
smoothSolver:  Solving for omega, Initial residual = 0.00201445, Final residual = 9.41397e-05, No Iterations 3
bounding omega, min: -206.17 max: 1.05789e+06 average: 6320.84
smoothSolver:  Solving for k, Initial residual = 0.00821686, Final residual = 0.000342734, No Iterations 3
bounding k, min: -3.43424 max: 4469.68 average: 89.0721
ExecutionTime = 31.48 s  ClockTime = 32 s

Time = 76

smoothSolver:  Solving for Ux, Initial residual = 0.00679939, Final residual = 0.000634547, No Iterations 3
smoothSolver:  Solving for Uy, Initial residual = 0.0227713, Final residual = 0.00124642, No Iterations 2
GAMG:  Solving for p, Initial residual = 0.0944262, Final residual = 0.00779372, No Iterations 1
time step continuity errors : sum local = 0.0249523, global = -0.00046553, cumulative = 0.0258253
smoothSolver:  Solving for omega, Initial residual = 0.00199857, Final residual = 9.25326e-05, No Iterations 3
bounding omega, min: -110.469 max: 1.06431e+06 average: 6310.38
smoothSolver:  Solving for k, Initial residual = 0.00807161, Final residual = 0.00033766, No Iterations 3
bounding k, min: -3.27613 max: 4457.36 average: 89.5925
ExecutionTime = 31.85 s  ClockTime = 32 s

Time = 77

smoothSolver:  Solving for Ux, Initial residual = 0.00672367, Final residual = 0.000627335, No Iterations 3
smoothSolver:  Solving for Uy, Initial residual = 0.0223153, Final residual = 0.00123552, No Iterations 2
GAMG:  Solving for p, Initial residual = 0.0903941, Final residual = 0.0040643, No Iterations 2
time step continuity errors : sum local = 0.0145927, global = 0.000263797, cumulative = 0.0260891
smoothSolver:  Solving for omega, Initial residual = 0.00194024, Final residual = 9.17528e-05, No Iterations 3
bounding omega, min: -543.104 max: 1.07041e+06 average: 6300.41
smoothSolver:  Solving for k, Initial residual = 0.00792398, Final residual = 0.000332035, No Iterations 3
bounding k, min: -11.0884 max: 4444.53 average: 90.0841
ExecutionTime = 32.23 s  ClockTime = 33 s

Time = 78

smoothSolver:  Solving for Ux, Initial residual = 0.00665271, Final residual = 0.000622309, No Iterations 3
smoothSolver:  Solving for Uy, Initial residual = 0.0222497, Final residual = 0.00123483, No Iterations 2
GAMG:  Solving for p, Initial residual = 0.0854442, Final residual = 0.0070139, No Iterations 1
time step continuity errors : sum local = 0.0258722, global = -0.000187089, cumulative = 0.025902
smoothSolver:  Solving for omega, Initial residual = 0.00189793, Final residual = 9.0188e-05, No Iterations 3
bounding omega, min: -325.519 max: 1.07627e+06 average: 6290.07
smoothSolver:  Solving for k, Initial residual = 0.00777916, Final residual = 0.00032693, No Iterations 3
bounding k, min: -9.50162 max: 4430.26 average: 90.5481
ExecutionTime = 32.61 s  ClockTime = 33 s

Time = 79

smoothSolver:  Solving for Ux, Initial residual = 0.00658205, Final residual = 0.000615404, No Iterations 3
smoothSolver:  Solving for Uy, Initial residual = 0.0218201, Final residual = 0.00122196, No Iterations 2
GAMG:  Solving for p, Initial residual = 0.0626564, Final residual = 0.00262746, No Iterations 2
time step continuity errors : sum local = 0.0137533, global = 2.96514e-05, cumulative = 0.0259317
smoothSolver:  Solving for omega, Initial residual = 0.00187533, Final residual = 8.94279e-05, No Iterations 3
bounding omega, min: -531.532 max: 1.08173e+06 average: 6280.02
smoothSolver:  Solving for k, Initial residual = 0.00765174, Final residual = 0.000322018, No Iterations 3
bounding k, min: -5.6124 max: 4414.02 average: 90.988
ExecutionTime = 33.02 s  ClockTime = 34 s

Time = 80

smoothSolver:  Solving for Ux, Initial residual = 0.0065204, Final residual = 0.0006111, No Iterations 3
smoothSolver:  Solving for Uy, Initial residual = 0.0217244, Final residual = 0.00122274, No Iterations 2
GAMG:  Solving for p, Initial residual = 0.0558591, Final residual = 0.00432896, No Iterations 1
time step continuity errors : sum local = 0.0260908, global = -0.000252294, cumulative = 0.0256794
smoothSolver:  Solving for omega, Initial residual = 0.00184535, Final residual = 8.81751e-05, No Iterations 3
bounding omega, min: -339.126 max: 1.08681e+06 average: 6270.06
smoothSolver:  Solving for k, Initial residual = 0.00751258, Final residual = 0.000316679, No Iterations 3
bounding k, min: -6.97044 max: 4400.15 average: 91.4019
ExecutionTime = 33.4 s  ClockTime = 34 s

Time = 81

smoothSolver:  Solving for Ux, Initial residual = 0.00645731, Final residual = 0.000604703, No Iterations 3
smoothSolver:  Solving for Uy, Initial residual = 0.0212871, Final residual = 0.00120916, No Iterations 2
GAMG:  Solving for p, Initial residual = 0.0645929, Final residual = 0.00267688, No Iterations 2
time step continuity errors : sum local = 0.0144319, global = 1.2273e-06, cumulative = 0.0256806
smoothSolver:  Solving for omega, Initial residual = 0.00182325, Final residual = 8.74285e-05, No Iterations 3
bounding omega, min: -460.546 max: 1.09161e+06 average: 6260.36
smoothSolver:  Solving for k, Initial residual = 0.00739178, Final residual = 0.000312243, No Iterations 3
bounding k, min: -1.28771 max: 4388.53 average: 91.7942
ExecutionTime = 33.79 s  ClockTime = 34 s

Time = 82

smoothSolver:  Solving for Ux, Initial residual = 0.00637912, Final residual = 0.000600517, No Iterations 3
smoothSolver:  Solving for Uy, Initial residual = 0.021146, Final residual = 0.00120899, No Iterations 2
GAMG:  Solving for p, Initial residual = 0.0675402, Final residual = 0.00546587, No Iterations 1
time step continuity errors : sum local = 0.0277129, global = 0.000365714, cumulative = 0.0260463
smoothSolver:  Solving for omega, Initial residual = 0.00178366, Final residual = 8.58784e-05, No Iterations 3
bounding omega, min: -103.216 max: 1.09604e+06 average: 6250.57
smoothSolver:  Solving for k, Initial residual = 0.00726937, Final residual = 0.000307518, No Iterations 3
bounding k, min: -2.65259 max: 4375.09 average: 92.1661
ExecutionTime = 34.17 s  ClockTime = 35 s

Time = 83

smoothSolver:  Solving for Ux, Initial residual = 0.00631066, Final residual = 0.000594043, No Iterations 3
smoothSolver:  Solving for Uy, Initial residual = 0.0207492, Final residual = 0.00119473, No Iterations 2
GAMG:  Solving for p, Initial residual = 0.0688207, Final residual = 0.0067734, No Iterations 1
time step continuity errors : sum local = 0.0352727, global = 0.000128821, cumulative = 0.0261751
smoothSolver:  Solving for omega, Initial residual = 0.00175299, Final residual = 8.46346e-05, No Iterations 3
bounding omega, min: -195.295 max: 1.1002e+06 average: 6240.85
smoothSolver:  Solving for k, Initial residual = 0.00715338, Final residual = 0.000303081, No Iterations 3
bounding k, min: -3.00864 max: 4359.27 average: 92.5206
ExecutionTime = 34.56 s  ClockTime = 35 s

Time = 84

smoothSolver:  Solving for Ux, Initial residual = 0.00622405, Final residual = 0.000587873, No Iterations 3
smoothSolver:  Solving for Uy, Initial residual = 0.0203999, Final residual = 0.00118203, No Iterations 2
GAMG:  Solving for p, Initial residual = 0.0647576, Final residual = 0.00262452, No Iterations 2
time step continuity errors : sum local = 0.0151774, global = -3.39693e-05, cumulative = 0.0261412
smoothSolver:  Solving for omega, Initial residual = 0.00169251, Final residual = 8.1582e-05, No Iterations 3
bounding omega, min: -58.6875 max: 1.10409e+06 average: 6231.66
smoothSolver:  Solving for k, Initial residual = 0.00704777, Final residual = 0.000298774, No Iterations 3
bounding k, min: -1.90562 max: 4341.08 average: 92.8602
ExecutionTime = 34.95 s  ClockTime = 35 s

Time = 85

smoothSolver:  Solving for Ux, Initial residual = 0.0061612, Final residual = 0.000586022, No Iterations 3
smoothSolver:  Solving for Uy, Initial residual = 0.020522, Final residual = 0.00119561, No Iterations 2
GAMG:  Solving for p, Initial residual = 0.0645475, Final residual = 0.0045977, No Iterations 1
time step continuity errors : sum local = 0.0264227, global = 0.000388681, cumulative = 0.0265299
smoothSolver:  Solving for omega, Initial residual = 0.00171507, Final residual = 8.3041e-05, No Iterations 3
smoothSolver:  Solving for k, Initial residual = 0.00693727, Final residual = 0.000294441, No Iterations 3
bounding k, min: -1.53611 max: 4329.13 average: 93.1849
ExecutionTime = 35.33 s  ClockTime = 36 s

Time = 86

smoothSolver:  Solving for Ux, Initial residual = 0.00609642, Final residual = 0.000580659, No Iterations 3
smoothSolver:  Solving for Uy, Initial residual = 0.0201492, Final residual = 0.00118304, No Iterations 2
GAMG:  Solving for p, Initial residual = 0.0723949, Final residual = 0.0069609, No Iterations 1
time step continuity errors : sum local = 0.0350362, global = 0.00024539, cumulative = 0.0267752
smoothSolver:  Solving for omega, Initial residual = 0.00170264, Final residual = 8.28705e-05, No Iterations 3
bounding omega, min: -91.3053 max: 1.11129e+06 average: 6212.38
smoothSolver:  Solving for k, Initial residual = 0.0068372, Final residual = 0.000290613, No Iterations 3
bounding k, min: -1.99527 max: 4316.57 average: 93.4968
ExecutionTime = 35.71 s  ClockTime = 36 s

Time = 87

smoothSolver:  Solving for Ux, Initial residual = 0.00602498, Final residual = 0.000575509, No Iterations 3
smoothSolver:  Solving for Uy, Initial residual = 0.0198465, Final residual = 0.00116703, No Iterations 2
GAMG:  Solving for p, Initial residual = 0.0681541, Final residual = 0.00277321, No Iterations 2
time step continuity errors : sum local = 0.0142122, global = 0.000209707, cumulative = 0.026985
smoothSolver:  Solving for omega, Initial residual = 0.00168686, Final residual = 8.20894e-05, No Iterations 3
bounding omega, min: -70.3601 max: 1.11443e+06 average: 6203.48
smoothSolver:  Solving for k, Initial residual = 0.0067487, Final residual = 0.000286751, No Iterations 3
bounding k, min: -2.20578 max: 4301.91 average: 93.7976
ExecutionTime = 36.1 s  ClockTime = 37 s

Time = 88

smoothSolver:  Solving for Ux, Initial residual = 0.00593589, Final residual = 0.00057222, No Iterations 3
smoothSolver:  Solving for Uy, Initial residual = 0.0196256, Final residual = 0.00117381, No Iterations 2
GAMG:  Solving for p, Initial residual = 0.0692292, Final residual = 0.00456835, No Iterations 1
time step continuity errors : sum local = 0.0247808, global = 0.000613154, cumulative = 0.0275981
smoothSolver:  Solving for omega, Initial residual = 0.00166455, Final residual = 8.11409e-05, No Iterations 3
bounding omega, min: -85.6132 max: 1.1172e+06 average: 6194.26
smoothSolver:  Solving for k, Initial residual = 0.00665622, Final residual = 0.000282751, No Iterations 3
bounding k, min: -3.47389 max: 4284.71 average: 94.0849
ExecutionTime = 36.46 s  ClockTime = 37 s

Time = 89

smoothSolver:  Solving for Ux, Initial residual = 0.00588132, Final residual = 0.000566809, No Iterations 3
smoothSolver:  Solving for Uy, Initial residual = 0.0193191, Final residual = 0.0011598, No Iterations 2
GAMG:  Solving for p, Initial residual = 0.0497014, Final residual = 0.00443781, No Iterations 1
time step continuity errors : sum local = 0.0331474, global = 0.000674955, cumulative = 0.0282731
smoothSolver:  Solving for omega, Initial residual = 0.00164259, Final residual = 8.03575e-05, No Iterations 3
bounding omega, min: -142.469 max: 1.11961e+06 average: 6185.07
smoothSolver:  Solving for k, Initial residual = 0.00656125, Final residual = 0.000279065, No Iterations 3
bounding k, min: -1.92233 max: 4273.06 average: 94.3652
ExecutionTime = 36.84 s  ClockTime = 37 s

Time = 90

smoothSolver:  Solving for Ux, Initial residual = 0.00581112, Final residual = 0.000561514, No Iterations 3
smoothSolver:  Solving for Uy, Initial residual = 0.0191347, Final residual = 0.00115219, No Iterations 2
GAMG:  Solving for p, Initial residual = 0.0441668, Final residual = 0.00438712, No Iterations 1
time step continuity errors : sum local = 0.0358112, global = 0.000656336, cumulative = 0.0289294
smoothSolver:  Solving for omega, Initial residual = 0.00162019, Final residual = 7.94331e-05, No Iterations 3
bounding omega, min: -53.509 max: 1.12171e+06 average: 6176.31
smoothSolver:  Solving for k, Initial residual = 0.00647959, Final residual = 0.000275784, No Iterations 3
bounding k, min: -2.55652 max: 4260.9 average: 94.6403
ExecutionTime = 37.22 s  ClockTime = 38 s

Time = 91

smoothSolver:  Solving for Ux, Initial residual = 0.0057398, Final residual = 0.000556711, No Iterations 3
smoothSolver:  Solving for Uy, Initial residual = 0.0189297, Final residual = 0.0011495, No Iterations 2
GAMG:  Solving for p, Initial residual = 0.0447001, Final residual = 0.00440824, No Iterations 1
time step continuity errors : sum local = 0.034979, global = 0.000598915, cumulative = 0.0295283
smoothSolver:  Solving for omega, Initial residual = 0.00160913, Final residual = 7.89921e-05, No Iterations 3
bounding omega, min: -228.104 max: 1.12373e+06 average: 6167.68
smoothSolver:  Solving for k, Initial residual = 0.00639979, Final residual = 0.000272361, No Iterations 3
bounding k, min: -3.2968 max: 4246.8 average: 94.9073
ExecutionTime = 37.57 s  ClockTime = 38 s

Time = 92

smoothSolver:  Solving for Ux, Initial residual = 0.00567023, Final residual = 0.000552146, No Iterations 3
smoothSolver:  Solving for Uy, Initial residual = 0.0187009, Final residual = 0.00114967, No Iterations 2
GAMG:  Solving for p, Initial residual = 0.0489552, Final residual = 0.00462282, No Iterations 1
time step continuity errors : sum local = 0.0341214, global = 0.000724307, cumulative = 0.0302526
smoothSolver:  Solving for omega, Initial residual = 0.00158635, Final residual = 7.79771e-05, No Iterations 3
bounding omega, min: -36.0038 max: 1.12574e+06 average: 6159.2
smoothSolver:  Solving for k, Initial residual = 0.00632422, Final residual = 0.00026889, No Iterations 3
bounding k, min: -1.93767 max: 4235.68 average: 95.1679
ExecutionTime = 37.94 s  ClockTime = 38 s

Time = 93

smoothSolver:  Solving for Ux, Initial residual = 0.00560459, Final residual = 0.000547415, No Iterations 3
smoothSolver:  Solving for Uy, Initial residual = 0.0184828, Final residual = 0.0011359, No Iterations 2
GAMG:  Solving for p, Initial residual = 0.0524636, Final residual = 0.00502957, No Iterations 1
time step continuity errors : sum local = 0.0347932, global = 0.00100202, cumulative = 0.0312546
smoothSolver:  Solving for omega, Initial residual = 0.00157453, Final residual = 7.75095e-05, No Iterations 3
bounding omega, min: -261.094 max: 1.12744e+06 average: 6150.53
smoothSolver:  Solving for k, Initial residual = 0.00625604, Final residual = 0.000265551, No Iterations 3
bounding k, min: -1.0587 max: 4224.4 average: 95.4196
ExecutionTime = 38.32 s  ClockTime = 39 s

Time = 94

smoothSolver:  Solving for Ux, Initial residual = 0.00551759, Final residual = 0.000541159, No Iterations 3
smoothSolver:  Solving for Uy, Initial residual = 0.0181886, Final residual = 0.0011202, No Iterations 2
GAMG:  Solving for p, Initial residual = 0.0542807, Final residual = 0.00530508, No Iterations 1
time step continuity errors : sum local = 0.0349115, global = 0.0013298, cumulative = 0.0325844
smoothSolver:  Solving for omega, Initial residual = 0.00150997, Final residual = 7.4412e-05, No Iterations 3
bounding omega, min: -130.676 max: 1.12884e+06 average: 6141.7
smoothSolver:  Solving for k, Initial residual = 0.00617817, Final residual = 0.000262089, No Iterations 3
bounding k, min: -2.91412 max: 4211.26 average: 95.6621
ExecutionTime = 38.69 s  ClockTime = 39 s

Time = 95

smoothSolver:  Solving for Ux, Initial residual = 0.00544925, Final residual = 0.000536864, No Iterations 3
smoothSolver:  Solving for Uy, Initial residual = 0.0179577, Final residual = 0.00110796, No Iterations 2
GAMG:  Solving for p, Initial residual = 0.0539612, Final residual = 0.0052145, No Iterations 1
time step continuity errors : sum local = 0.0333234, global = 0.00174197, cumulative = 0.0343264
smoothSolver:  Solving for omega, Initial residual = 0.00150422, Final residual = 7.42683e-05, No Iterations 3
bounding omega, min: -66.1207 max: 1.12989e+06 average: 6133.21
smoothSolver:  Solving for k, Initial residual = 0.00611333, Final residual = 0.000258751, No Iterations 3
bounding k, min: -2.9867 max: 4199.74 average: 95.8968
ExecutionTime = 39.06 s  ClockTime = 40 s

Time = 96

smoothSolver:  Solving for Ux, Initial residual = 0.00539255, Final residual = 0.000533524, No Iterations 3
smoothSolver:  Solving for Uy, Initial residual = 0.0177445, Final residual = 0.00110036, No Iterations 2
GAMG:  Solving for p, Initial residual = 0.0570101, Final residual = 0.00538931, No Iterations 1
time step continuity errors : sum local = 0.0334583, global = 0.00225361, cumulative = 0.03658
smoothSolver:  Solving for omega, Initial residual = 0.00152653, Final residual = 7.54773e-05, No Iterations 3
bounding omega, min: -92.305 max: 1.13074e+06 average: 6124.57
smoothSolver:  Solving for k, Initial residual = 0.00604492, Final residual = 0.00025524, No Iterations 3
bounding k, min: -1.39482 max: 4189.84 average: 96.1214
ExecutionTime = 39.46 s  ClockTime = 40 s

Time = 97

smoothSolver:  Solving for Ux, Initial residual = 0.00532419, Final residual = 0.00052795, No Iterations 3
smoothSolver:  Solving for Uy, Initial residual = 0.0174225, Final residual = 0.00109326, No Iterations 2
GAMG:  Solving for p, Initial residual = 0.0735501, Final residual = 0.00730378, No Iterations 1
time step continuity errors : sum local = 0.0339592, global = 0.0026346, cumulative = 0.0392146
smoothSolver:  Solving for omega, Initial residual = 0.00144523, Final residual = 7.14495e-05, No Iterations 3
bounding omega, min: -95.7965 max: 1.13136e+06 average: 6116.29
smoothSolver:  Solving for k, Initial residual = 0.00598341, Final residual = 0.000251774, No Iterations 3
bounding k, min: -2.28872 max: 4178.2 average: 96.3353
ExecutionTime = 39.82 s  ClockTime = 40 s

Time = 98

smoothSolver:  Solving for Ux, Initial residual = 0.00528604, Final residual = 0.000525636, No Iterations 3
smoothSolver:  Solving for Uy, Initial residual = 0.0172202, Final residual = 0.00108085, No Iterations 2
GAMG:  Solving for p, Initial residual = 0.0764376, Final residual = 0.00386511, No Iterations 2
time step continuity errors : sum local = 0.016451, global = -0.000541587, cumulative = 0.038673
smoothSolver:  Solving for omega, Initial residual = 0.00149797, Final residual = 7.39706e-05, No Iterations 3
smoothSolver:  Solving for k, Initial residual = 0.00592097, Final residual = 0.000248452, No Iterations 3
bounding k, min: -3.01992 max: 4168.6 average: 96.5398
ExecutionTime = 40.21 s  ClockTime = 41 s

Time = 99

smoothSolver:  Solving for Ux, Initial residual = 0.00526144, Final residual = 0.000523946, No Iterations 3
smoothSolver:  Solving for Uy, Initial residual = 0.0169939, Final residual = 0.00108082, No Iterations 2
GAMG:  Solving for p, Initial residual = 0.0818562, Final residual = 0.00719419, No Iterations 1
time step continuity errors : sum local = 0.0281625, global = -0.00140188, cumulative = 0.0372711
smoothSolver:  Solving for omega, Initial residual = 0.00148267, Final residual = 7.33315e-05, No Iterations 3
bounding omega, min: -263.938 max: 1.13205e+06 average: 6099.27
smoothSolver:  Solving for k, Initial residual = 0.00585645, Final residual = 0.000245163, No Iterations 3
bounding k, min: -4.88234 max: 4159.62 average: 96.7351
ExecutionTime = 40.59 s  ClockTime = 41 s

Time = 100

smoothSolver:  Solving for Ux, Initial residual = 0.00521037, Final residual = 0.000519086, No Iterations 3
smoothSolver:  Solving for Uy, Initial residual = 0.0167168, Final residual = 0.00106261, No Iterations 2
GAMG:  Solving for p, Initial residual = 0.0834889, Final residual = 0.00324912, No Iterations 2
[...]
bounding k, min: -3.09773e-05 max: 71.9802 average: 8.87814
ExecutionTime = 2001.44 s  ClockTime = 2002 s

Time = 4976

smoothSolver:  Solving for Ux, Initial residual = 1.55441e-05, Final residual = 1.15094e-06, No Iterations 6
smoothSolver:  Solving for Uy, Initial residual = 3.03854e-05, Final residual = 2.30521e-06, No Iterations 3
GAMG:  Solving for p, Initial residual = 0.000139705, Final residual = 1.10142e-05, No Iterations 2
time step continuity errors : sum local = 5.2309e-07, global = 3.14787e-07, cumulative = 0.105478
smoothSolver:  Solving for omega, Initial residual = 7.14554e-07, Final residual = 3.87662e-08, No Iterations 3
smoothSolver:  Solving for k, Initial residual = 3.2077e-05, Final residual = 2.47032e-06, No Iterations 3
bounding k, min: -0.00129435 max: 71.9788 average: 8.87826
ExecutionTime = 2001.83 s  ClockTime = 2003 s

Time = 4977

smoothSolver:  Solving for Ux, Initial residual = 1.55278e-05, Final residual = 1.14857e-06, No Iterations 6
smoothSolver:  Solving for Uy, Initial residual = 3.04982e-05, Final residual = 2.30428e-06, No Iterations 3
GAMG:  Solving for p, Initial residual = 0.000138829, Final residual = 9.44419e-06, No Iterations 3
time step continuity errors : sum local = 4.48766e-07, global = -5.39365e-08, cumulative = 0.105478
smoothSolver:  Solving for omega, Initial residual = 7.09946e-07, Final residual = 3.86891e-08, No Iterations 3
smoothSolver:  Solving for k, Initial residual = 3.20437e-05, Final residual = 2.46759e-06, No Iterations 3
bounding k, min: -8.89035e-06 max: 71.9773 average: 8.87838
ExecutionTime = 2002.26 s  ClockTime = 2003 s

Time = 4978

smoothSolver:  Solving for Ux, Initial residual = 1.55002e-05, Final residual = 1.14619e-06, No Iterations 6
smoothSolver:  Solving for Uy, Initial residual = 3.04575e-05, Final residual = 2.30307e-06, No Iterations 3
GAMG:  Solving for p, Initial residual = 0.00013705, Final residual = 1.25743e-05, No Iterations 1
time step continuity errors : sum local = 5.97958e-07, global = 1.79106e-07, cumulative = 0.105478
smoothSolver:  Solving for omega, Initial residual = 7.12379e-07, Final residual = 3.86692e-08, No Iterations 3
smoothSolver:  Solving for k, Initial residual = 3.19598e-05, Final residual = 2.46097e-06, No Iterations 3
bounding k, min: -0.000237981 max: 71.9758 average: 8.87851
ExecutionTime = 2002.64 s  ClockTime = 2004 s

Time = 4979

smoothSolver:  Solving for Ux, Initial residual = 1.54532e-05, Final residual = 1.14378e-06, No Iterations 6
smoothSolver:  Solving for Uy, Initial residual = 3.017e-05, Final residual = 2.29995e-06, No Iterations 3
GAMG:  Solving for p, Initial residual = 0.000137638, Final residual = 8.37195e-06, No Iterations 2
time step continuity errors : sum local = 3.98151e-07, global = 1.95262e-07, cumulative = 0.105479
smoothSolver:  Solving for omega, Initial residual = 7.08377e-07, Final residual = 3.85916e-08, No Iterations 3
smoothSolver:  Solving for k, Initial residual = 3.1922e-05, Final residual = 2.45791e-06, No Iterations 3
bounding k, min: -4.33159e-05 max: 71.9743 average: 8.87863
ExecutionTime = 2003.02 s  ClockTime = 2004 s

Time = 4980

smoothSolver:  Solving for Ux, Initial residual = 1.54394e-05, Final residual = 1.14132e-06, No Iterations 6
smoothSolver:  Solving for Uy, Initial residual = 3.03057e-05, Final residual = 2.29278e-06, No Iterations 3
GAMG:  Solving for p, Initial residual = 0.000136888, Final residual = 1.24187e-05, No Iterations 2
time step continuity errors : sum local = 5.90837e-07, global = -6.39351e-08, cumulative = 0.105478
smoothSolver:  Solving for omega, Initial residual = 7.11227e-07, Final residual = 3.85785e-08, No Iterations 3
smoothSolver:  Solving for k, Initial residual = 3.18422e-05, Final residual = 2.45168e-06, No Iterations 3
bounding k, min: -0.000236369 max: 71.9728 average: 8.87876
ExecutionTime = 2003.43 s  ClockTime = 2004 s

Time = 4981

smoothSolver:  Solving for Ux, Initial residual = 1.54133e-05, Final residual = 1.13902e-06, No Iterations 6
smoothSolver:  Solving for Uy, Initial residual = 3.03032e-05, Final residual = 2.29524e-06, No Iterations 3
GAMG:  Solving for p, Initial residual = 0.000127495, Final residual = 1.01057e-05, No Iterations 2
time step continuity errors : sum local = 4.81059e-07, global = -8.62703e-08, cumulative = 0.105478
smoothSolver:  Solving for omega, Initial residual = 7.07579e-07, Final residual = 3.84997e-08, No Iterations 3
smoothSolver:  Solving for k, Initial residual = 3.18096e-05, Final residual = 2.44904e-06, No Iterations 3
bounding k, min: -3.08917e-05 max: 71.9714 average: 8.87888
ExecutionTime = 2003.82 s  ClockTime = 2005 s

Time = 4982

smoothSolver:  Solving for Ux, Initial residual = 1.53799e-05, Final residual = 1.13554e-06, No Iterations 6
smoothSolver:  Solving for Uy, Initial residual = 3.02433e-05, Final residual = 2.29045e-06, No Iterations 3
GAMG:  Solving for p, Initial residual = 0.000125131, Final residual = 1.02093e-05, No Iterations 2
time step continuity errors : sum local = 4.86152e-07, global = -7.44859e-08, cumulative = 0.105478
smoothSolver:  Solving for omega, Initial residual = 7.07884e-07, Final residual = 3.839e-08, No Iterations 3
smoothSolver:  Solving for k, Initial residual = 3.17247e-05, Final residual = 2.44235e-06, No Iterations 3
bounding k, min: -0.000236604 max: 71.9699 average: 8.87901
ExecutionTime = 2004.2 s  ClockTime = 2005 s

Time = 4983

smoothSolver:  Solving for Ux, Initial residual = 1.53426e-05, Final residual = 1.13422e-06, No Iterations 6
smoothSolver:  Solving for Uy, Initial residual = 3.06795e-05, Final residual = 2.29207e-06, No Iterations 3
GAMG:  Solving for p, Initial residual = 0.000608557, Final residual = 1.2801e-05, No Iterations 1
time step continuity errors : sum local = 6.10107e-07, global = 2.87003e-07, cumulative = 0.105479
smoothSolver:  Solving for omega, Initial residual = 7.07385e-07, Final residual = 3.84183e-08, No Iterations 3
smoothSolver:  Solving for k, Initial residual = 3.1687e-05, Final residual = 2.43914e-06, No Iterations 3
bounding k, min: -8.83137e-06 max: 71.9684 average: 8.87913
ExecutionTime = 2004.57 s  ClockTime = 2006 s

Time = 4984

smoothSolver:  Solving for Ux, Initial residual = 1.52952e-05, Final residual = 1.1317e-06, No Iterations 6
smoothSolver:  Solving for Uy, Initial residual = 3.00723e-05, Final residual = 2.28975e-06, No Iterations 3
GAMG:  Solving for p, Initial residual = 0.000400295, Final residual = 2.60185e-05, No Iterations 1
time step continuity errors : sum local = 1.2408e-06, global = 8.35888e-09, cumulative = 0.105479
smoothSolver:  Solving for omega, Initial residual = 7.10185e-07, Final residual = 3.83948e-08, No Iterations 3
smoothSolver:  Solving for k, Initial residual = 3.16128e-05, Final residual = 2.43332e-06, No Iterations 3
bounding k, min: -0.000239446 max: 71.967 average: 8.87926
ExecutionTime = 2004.95 s  ClockTime = 2006 s

Time = 4985

smoothSolver:  Solving for Ux, Initial residual = 1.52923e-05, Final residual = 1.12942e-06, No Iterations 6
smoothSolver:  Solving for Uy, Initial residual = 3.00554e-05, Final residual = 2.286e-06, No Iterations 3
GAMG:  Solving for p, Initial residual = 0.000210872, Final residual = 1.57409e-05, No Iterations 2
time step continuity errors : sum local = 7.50895e-07, global = -1.35226e-07, cumulative = 0.105478
smoothSolver:  Solving for omega, Initial residual = 7.03768e-07, Final residual = 3.83061e-08, No Iterations 3
smoothSolver:  Solving for k, Initial residual = 3.15773e-05, Final residual = 2.43044e-06, No Iterations 3
bounding k, min: -4.32901e-05 max: 71.9655 average: 8.87938
ExecutionTime = 2005.37 s  ClockTime = 2006 s

Time = 4986

smoothSolver:  Solving for Ux, Initial residual = 1.52689e-05, Final residual = 1.127e-06, No Iterations 6
smoothSolver:  Solving for Uy, Initial residual = 3.02639e-05, Final residual = 2.28479e-06, No Iterations 3
GAMG:  Solving for p, Initial residual = 0.000188438, Final residual = 1.30904e-05, No Iterations 1
time step continuity errors : sum local = 6.24888e-07, global = 1.034e-07, cumulative = 0.105479
smoothSolver:  Solving for omega, Initial residual = 7.06597e-07, Final residual = 3.82943e-08, No Iterations 3
smoothSolver:  Solving for k, Initial residual = 3.14956e-05, Final residual = 2.42406e-06, No Iterations 3
bounding k, min: -0.000238027 max: 71.9641 average: 8.87951
ExecutionTime = 2005.75 s  ClockTime = 2007 s

Time = 4987

smoothSolver:  Solving for Ux, Initial residual = 1.52177e-05, Final residual = 1.12461e-06, No Iterations 6
smoothSolver:  Solving for Uy, Initial residual = 2.99702e-05, Final residual = 2.28125e-06, No Iterations 3
GAMG:  Solving for p, Initial residual = 0.000175662, Final residual = 1.33086e-05, No Iterations 2
time step continuity errors : sum local = 6.35326e-07, global = -4.22892e-08, cumulative = 0.105478
smoothSolver:  Solving for omega, Initial residual = 7.02504e-07, Final residual = 3.82143e-08, No Iterations 3
smoothSolver:  Solving for k, Initial residual = 3.14571e-05, Final residual = 2.421e-06, No Iterations 3
bounding k, min: -3.09764e-05 max: 71.9626 average: 8.87963
ExecutionTime = 2006.16 s  ClockTime = 2007 s

Time = 4988

smoothSolver:  Solving for Ux, Initial residual = 1.51943e-05, Final residual = 1.1222e-06, No Iterations 6
smoothSolver:  Solving for Uy, Initial residual = 3.01094e-05, Final residual = 2.28083e-06, No Iterations 3
GAMG:  Solving for p, Initial residual = 0.000157977, Final residual = 1.14722e-05, No Iterations 1
time step continuity errors : sum local = 5.47992e-07, global = 1.73489e-07, cumulative = 0.105479
smoothSolver:  Solving for omega, Initial residual = 7.03751e-07, Final residual = 3.81952e-08, No Iterations 3
smoothSolver:  Solving for k, Initial residual = 3.13806e-05, Final residual = 2.41494e-06, No Iterations 3
bounding k, min: -0.000234483 max: 71.9611 average: 8.87976
ExecutionTime = 2006.54 s  ClockTime = 2008 s

Time = 4989

smoothSolver:  Solving for Ux, Initial residual = 1.51434e-05, Final residual = 1.11982e-06, No Iterations 6
smoothSolver:  Solving for Uy, Initial residual = 2.98947e-05, Final residual = 2.27955e-06, No Iterations 3
GAMG:  Solving for p, Initial residual = 0.000150874, Final residual = 8.74925e-06, No Iterations 2
time step continuity errors : sum local = 4.17957e-07, global = 2.66089e-07, cumulative = 0.105479
smoothSolver:  Solving for omega, Initial residual = 6.99224e-07, Final residual = 3.81183e-08, No Iterations 3
smoothSolver:  Solving for k, Initial residual = 3.13481e-05, Final residual = 2.41227e-06, No Iterations 3
bounding k, min: -8.77533e-06 max: 71.9597 average: 8.87988
ExecutionTime = 2006.94 s  ClockTime = 2008 s

Time = 4990

smoothSolver:  Solving for Ux, Initial residual = 1.51285e-05, Final residual = 1.11742e-06, No Iterations 6
smoothSolver:  Solving for Uy, Initial residual = 3.01023e-05, Final residual = 2.28489e-06, No Iterations 3
GAMG:  Solving for p, Initial residual = 0.00014666, Final residual = 5.30419e-06, No Iterations 3
time step continuity errors : sum local = 2.53483e-07, global = -1.95174e-08, cumulative = 0.105479
smoothSolver:  Solving for omega, Initial residual = 7.018e-07, Final residual = 3.80985e-08, No Iterations 3
smoothSolver:  Solving for k, Initial residual = 3.1265e-05, Final residual = 2.40565e-06, No Iterations 3
bounding k, min: -0.000235106 max: 71.9582 average: 8.88001
ExecutionTime = 2007.37 s  ClockTime = 2008 s

Time = 4991

smoothSolver:  Solving for Ux, Initial residual = 1.51077e-05, Final residual = 1.11524e-06, No Iterations 6
smoothSolver:  Solving for Uy, Initial residual = 3.01521e-05, Final residual = 2.27832e-06, No Iterations 3
GAMG:  Solving for p, Initial residual = 0.000139452, Final residual = 1.09101e-05, No Iterations 1
time step continuity errors : sum local = 5.21783e-07, global = 1.9891e-07, cumulative = 0.105479
smoothSolver:  Solving for omega, Initial residual = 6.97699e-07, Final residual = 3.80201e-08, No Iterations 3
smoothSolver:  Solving for k, Initial residual = 3.12303e-05, Final residual = 2.40275e-06, No Iterations 3
bounding k, min: -0.000267336 max: 71.9568 average: 8.88013
ExecutionTime = 2007.77 s  ClockTime = 2009 s

Time = 4992

smoothSolver:  Solving for Ux, Initial residual = 1.50589e-05, Final residual = 1.11269e-06, No Iterations 6
smoothSolver:  Solving for Uy, Initial residual = 2.98785e-05, Final residual = 2.27541e-06, No Iterations 3
GAMG:  Solving for p, Initial residual = 0.000140051, Final residual = 1.13434e-05, No Iterations 2
time step continuity errors : sum local = 5.42519e-07, global = 2.25411e-07, cumulative = 0.105479
smoothSolver:  Solving for omega, Initial residual = 7.00331e-07, Final residual = 3.80016e-08, No Iterations 3
smoothSolver:  Solving for k, Initial residual = 3.11519e-05, Final residual = 2.3966e-06, No Iterations 3
bounding k, min: -0.000459945 max: 71.9554 average: 8.88026
ExecutionTime = 2008.18 s  ClockTime = 2009 s

Time = 4993

smoothSolver:  Solving for Ux, Initial residual = 1.50453e-05, Final residual = 1.11045e-06, No Iterations 6
smoothSolver:  Solving for Uy, Initial residual = 2.98762e-05, Final residual = 2.27082e-06, No Iterations 3
GAMG:  Solving for p, Initial residual = 0.00013781, Final residual = 1.05729e-05, No Iterations 2
time step continuity errors : sum local = 5.05973e-07, global = -6.18255e-08, cumulative = 0.105479
smoothSolver:  Solving for omega, Initial residual = 6.96429e-07, Final residual = 3.7926e-08, No Iterations 3
smoothSolver:  Solving for k, Initial residual = 3.11173e-05, Final residual = 2.39392e-06, No Iterations 3
bounding k, min: -3.0893e-05 max: 71.954 average: 8.88038
ExecutionTime = 2008.58 s  ClockTime = 2010 s

Time = 4994

smoothSolver:  Solving for Ux, Initial residual = 1.50164e-05, Final residual = 1.10807e-06, No Iterations 6
smoothSolver:  Solving for Uy, Initial residual = 2.97776e-05, Final residual = 2.2687e-06, No Iterations 3
GAMG:  Solving for p, Initial residual = 0.000130056, Final residual = 1.23454e-05, No Iterations 1
time step continuity errors : sum local = 5.91065e-07, global = 2.29587e-07, cumulative = 0.10548
smoothSolver:  Solving for omega, Initial residual = 6.98537e-07, Final residual = 3.79074e-08, No Iterations 3
smoothSolver:  Solving for k, Initial residual = 3.10344e-05, Final residual = 2.3875e-06, No Iterations 3
bounding k, min: -0.000236664 max: 71.9526 average: 8.88051
ExecutionTime = 2008.97 s  ClockTime = 2010 s

Time = 4995

smoothSolver:  Solving for Ux, Initial residual = 1.49666e-05, Final residual = 1.1057e-06, No Iterations 6
smoothSolver:  Solving for Uy, Initial residual = 2.95912e-05, Final residual = 2.26684e-06, No Iterations 3
GAMG:  Solving for p, Initial residual = 0.000131847, Final residual = 1.05936e-05, No Iterations 2
time step continuity errors : sum local = 5.07266e-07, global = 2.7192e-07, cumulative = 0.10548
smoothSolver:  Solving for omega, Initial residual = 6.93883e-07, Final residual = 3.78269e-08, No Iterations 3
smoothSolver:  Solving for k, Initial residual = 3.09984e-05, Final residual = 2.38444e-06, No Iterations 3
bounding k, min: -0.000188369 max: 71.9511 average: 8.88064
ExecutionTime = 2009.38 s  ClockTime = 2010 s

Time = 4996

smoothSolver:  Solving for Ux, Initial residual = 1.49534e-05, Final residual = 1.10331e-06, No Iterations 6
smoothSolver:  Solving for Uy, Initial residual = 2.97856e-05, Final residual = 2.26515e-06, No Iterations 3
GAMG:  Solving for p, Initial residual = 0.000132861, Final residual = 6.8601e-06, No Iterations 3
time step continuity errors : sum local = 3.28667e-07, global = -2.24346e-08, cumulative = 0.10548
smoothSolver:  Solving for omega, Initial residual = 6.95669e-07, Final residual = 3.78087e-08, No Iterations 3
smoothSolver:  Solving for k, Initial residual = 3.09234e-05, Final residual = 2.37845e-06, No Iterations 3
bounding k, min: -0.00023966 max: 71.9497 average: 8.88076
ExecutionTime = 2009.84 s  ClockTime = 2011 s

Time = 4997

smoothSolver:  Solving for Ux, Initial residual = 1.49269e-05, Final residual = 1.10088e-06, No Iterations 6
smoothSolver:  Solving for Uy, Initial residual = 2.98713e-05, Final residual = 2.2648e-06, No Iterations 3
GAMG:  Solving for p, Initial residual = 0.000130023, Final residual = 5.73158e-06, No Iterations 2
time step continuity errors : sum local = 2.7486e-07, global = -2.03628e-08, cumulative = 0.10548
smoothSolver:  Solving for omega, Initial residual = 6.91568e-07, Final residual = 3.77237e-08, No Iterations 3
smoothSolver:  Solving for k, Initial residual = 3.08905e-05, Final residual = 2.37584e-06, No Iterations 3
bounding k, min: -4.33712e-05 max: 71.9483 average: 8.88089
ExecutionTime = 2010.26 s  ClockTime = 2011 s

Time = 4998

smoothSolver:  Solving for Ux, Initial residual = 1.48871e-05, Final residual = 1.09856e-06, No Iterations 6
smoothSolver:  Solving for Uy, Initial residual = 2.96887e-05, Final residual = 2.26347e-06, No Iterations 3
GAMG:  Solving for p, Initial residual = 0.000127344, Final residual = 8.26456e-06, No Iterations 2
time step continuity errors : sum local = 3.96403e-07, global = -3.84487e-08, cumulative = 0.10548
smoothSolver:  Solving for omega, Initial residual = 6.94926e-07, Final residual = 3.77179e-08, No Iterations 3
smoothSolver:  Solving for k, Initial residual = 3.08088e-05, Final residual = 2.3694e-06, No Iterations 3
bounding k, min: -0.000237059 max: 71.9469 average: 8.88101
ExecutionTime = 2010.66 s  ClockTime = 2012 s

Time = 4999

smoothSolver:  Solving for Ux, Initial residual = 1.4859e-05, Final residual = 1.09633e-06, No Iterations 6
smoothSolver:  Solving for Uy, Initial residual = 2.96829e-05, Final residual = 2.26348e-06, No Iterations 3
GAMG:  Solving for p, Initial residual = 0.000240863, Final residual = 1.52371e-05, No Iterations 1
time step continuity errors : sum local = 7.31234e-07, global = 2.66091e-07, cumulative = 0.10548
smoothSolver:  Solving for omega, Initial residual = 6.909e-07, Final residual = 3.76391e-08, No Iterations 3
smoothSolver:  Solving for k, Initial residual = 3.07702e-05, Final residual = 2.36626e-06, No Iterations 3
bounding k, min: -0.000272467 max: 71.9455 average: 8.88114
ExecutionTime = 2011.03 s  ClockTime = 2012 s

Time = 5000

smoothSolver:  Solving for Ux, Initial residual = 1.48134e-05, Final residual = 1.09379e-06, No Iterations 6
smoothSolver:  Solving for Uy, Initial residual = 2.95416e-05, Final residual = 2.26156e-06, No Iterations 3
GAMG:  Solving for p, Initial residual = 0.00018797, Final residual = 1.08044e-05, No Iterations 2
time step continuity errors : sum local = 5.18636e-07, global = 2.72934e-07, cumulative = 0.10548
smoothSolver:  Solving for omega, Initial residual = 6.923e-07, Final residual = 3.7612e-08, No Iterations 3
smoothSolver:  Solving for k, Initial residual = 3.06956e-05, Final residual = 2.3603e-06, No Iterations 3
bounding k, min: -0.000671798 max: 71.9441 average: 8.88126
ExecutionTime = 2011.91 s  ClockTime = 2013 s

    functionObjects::turbulenceFields stressComponents writing field: turbulenceProperties:devReff

    functionObjects::pressure pressureCoefficient writing field: cp
--> FOAM Warning : 
    From Foam::IOobjectList Foam::sampledSets::preCheckFields(unsigned int)
    in file sampledSet/sampledSets/sampledSets.C at line 216
    
Cannot find registered field matching 1(U.mag)
writeCellCentres writeCellCentres write:
    writing cell-centres field C to 5000
    Writing the x component field of the cell-centres Cx to 5000
    Writing the y component field of the cell-centres Cy to 5000
    Writing the z component field of the cell-centres Cz to 5000
wallShearStress wallShearStress write:
    writing field wallShearStress
    min/max(upperWall) = (-2.21798 -1.75529e-05 -1.2582e-21), (-0.755981 0.000475277 1.6112e-21)
    min/max(lowerWall) = (-3.10542 -0.706714 -6.77111e-20), (0.559873 0.0438329 1.22802e-19)
End

